initing gpgpu sim in accel-sim.cc
Accel-Sim [build accelsim-commit-_modified_0.0_25-11-25-18-50-33]

        *** GPGPU-Sim Simulator Version 4.2.0  [build gpgpu-sim_git-commit-_modified_0.0] ***


GPGPU-Sim: Configuration options:

-save_embedded_ptx                      0 # saves ptx files embedded in binary as <n>.ptx
-keep                                   0 # keep intermediate files created by GPGPU-Sim when interfacing with external programs
-gpgpu_ptx_save_converted_ptxplus                    0 # Saved converted ptxplus to a file
-gpgpu_occupancy_sm_number                   86 # The SM number to pass to ptxas when getting register usage for computing GPU occupancy. This parameter is required in the config.
-ptx_opcode_latency_int           4,4,4,4,21 # Opcode latencies for integers <ADD,MAX,MUL,MAD,DIV,SHFL>Default 1,1,19,25,145,32
-ptx_opcode_latency_fp           4,4,4,4,39 # Opcode latencies for single precision floating points <ADD,MAX,MUL,MAD,DIV>Default 1,1,1,1,30
-ptx_opcode_latency_dp      64,64,64,64,330 # Opcode latencies for double precision floating points <ADD,MAX,MUL,MAD,DIV>Default 8,8,8,8,335
-ptx_opcode_latency_sfu                   21 # Opcode latencies for SFU instructionsDefault 8
-ptx_opcode_latency_tesnor                   64 # Opcode latencies for Tensor instructionsDefault 64
-ptx_opcode_initiation_int            2,2,2,2,2 # Opcode initiation intervals for integers <ADD,MAX,MUL,MAD,DIV,SHFL>Default 1,1,4,4,32,4
-ptx_opcode_initiation_fp            1,1,1,1,2 # Opcode initiation intervals for single precision floating points <ADD,MAX,MUL,MAD,DIV>Default 1,1,1,1,5
-ptx_opcode_initiation_dp      64,64,64,64,130 # Opcode initiation intervals for double precision floating points <ADD,MAX,MUL,MAD,DIV>Default 8,8,8,8,130
-ptx_opcode_initiation_sfu                    8 # Opcode initiation intervals for sfu instructionsDefault 8
-ptx_opcode_initiation_tensor                   64 # Opcode initiation intervals for tensor instructionsDefault 64
-cdp_latency         7200,8000,100,12000,1600 # CDP API latency <cudaStreamCreateWithFlags, cudaGetParameterBufferV2_init_perWarp, cudaGetParameterBufferV2_perKernel, cudaLaunchDeviceV2_init_perWarp, cudaLaunchDevicV2_perKernel>Default 7200,8000,100,12000,1600
-network_mode                           2 # Interconnection network mode
-inter_config_file                   mesh # Interconnection network config file
-icnt_in_buffer_limit                  512 # in_buffer_limit
-icnt_out_buffer_limit                  512 # out_buffer_limit
-icnt_subnets                           2 # subnets
-icnt_arbiter_algo                      1 # arbiter_algo
-icnt_verbose                           0 # inct_verbose
-icnt_grant_cycles                      1 # grant_cycles
-gpgpu_ptx_use_cuobjdump                    1 # Use cuobjdump to extract ptx and sass from binaries
-gpgpu_experimental_lib_support                    0 # Try to extract code from cuda libraries [Broken because of unknown cudaGetExportTable]
-checkpoint_option                      0 #  checkpointing flag (0 = no checkpoint)
-checkpoint_kernel                      1 #  checkpointing during execution of which kernel (1- 1st kernel)
-checkpoint_CTA                         0 #  checkpointing after # of CTA (< less than total CTA)
-resume_option                          0 #  resume flag (0 = no resume)
-resume_kernel                          0 #  Resume from which kernel (1= 1st kernel)
-resume_CTA                             0 #  resume from which CTA 
-checkpoint_CTA_t                       0 #  resume from which CTA 
-checkpoint_insn_Y                      0 #  resume from which CTA 
-gpgpu_ptx_convert_to_ptxplus                    0 # Convert SASS (native ISA) to ptxplus and run ptxplus
-gpgpu_ptx_force_max_capability                   86 # Force maximum compute capability
-gpgpu_ptx_inst_debug_to_file                    0 # Dump executed instructions' debug information to file
-gpgpu_ptx_inst_debug_file       inst_debug.txt # Executed instructions' debug output file
-gpgpu_ptx_inst_debug_thread_uid                    1 # Thread UID for executed instructions' debug output
-gpgpu_simd_model                       1 # 1 = post-dominator
-gpgpu_shader_core_pipeline              1536:32 # shader core pipeline config, i.e., {<nthread>:<warpsize>}
-gpgpu_tex_cache:l1  N:4:128:256,L:R:m:N:L,T:512:8,128:2 # per-shader L1 texture cache  (READ-ONLY) config  {<nsets>:<bsize>:<assoc>,<rep>:<wr>:<alloc>:<wr_alloc>,<mshr>:<N>:<merge>,<mq>:<rf>}
-gpgpu_const_cache:l1 N:128:64:8,L:R:f:N:L,S:2:64,4 # per-shader L1 constant memory cache  (READ-ONLY) config  {<nsets>:<bsize>:<assoc>,<rep>:<wr>:<alloc>:<wr_alloc>,<mshr>:<N>:<merge>,<mq>} 
-gpgpu_cache:il1     N:64:128:16,L:R:f:N:L,S:2:48,4 # shader L1 instruction cache config  {<sector?>:<nsets>:<bsize>:<assoc>,<rep>:<wr>:<alloc>:<wr_alloc>:<set_index_fn>,<mshr>:<N>:<merge>,<mq>} 
-gpgpu_cache:dl1     S:4:128:256,L:T:m:L:L,A:384:48,16:0,32 # per-shader L1 data cache config  {<sector?>:<nsets>:<bsize>:<assoc>,<rep>:<wr>:<alloc>:<wr_alloc>:<set_index_fn>,<mshr>:<N>:<merge>,<mq>:<fifo_entry>,<data_port_width> | none}
-gpgpu_l1_cache_write_ratio                   25 # L1D write ratio
-gpgpu_l1_banks                         4 # The number of L1 cache banks
-gpgpu_l1_banks_byte_interleaving                   32 # l1 banks byte interleaving granularity
-gpgpu_l1_banks_hashing_function                    0 # l1 banks hashing function
-gpgpu_l1_latency                      39 # L1 Hit Latency
-gpgpu_smem_latency                    29 # smem Latency
-gpgpu_cache:dl1PrefL1                 none # per-shader L1 data cache config  {<sector?>:<nsets>:<bsize>:<assoc>,<rep>:<wr>:<alloc>:<wr_alloc>:<set_index_fn>,<mshr>:<N>:<merge>,<mq>:<fifo_entry>,<data_port_width> | none}
-gpgpu_cache:dl1PrefShared                 none # per-shader L1 data cache config  {<sector?>:<nsets>:<bsize>:<assoc>,<rep>:<wr>:<alloc>:<wr_alloc>:<set_index_fn>,<mshr>:<N>:<merge>,<mq>:<fifo_entry>,<data_port_width> | none}
-gpgpu_gmem_skip_L1D                    0 # global memory access skip L1D cache (implements -Xptxas -dlcm=cg, default=no skip)
-gpgpu_perfect_mem                      0 # enable perfect memory mode (no cache miss)
-n_regfile_gating_group                    4 # group of lanes that should be read/written together)
-gpgpu_clock_gated_reg_file                    0 # enable clock gated reg file for power calculations
-gpgpu_clock_gated_lanes                    0 # enable clock gated lanes for power calculations
-gpgpu_shader_registers                65536 # Number of registers per shader core. Limits number of concurrent CTAs. (default 8192)
-gpgpu_registers_per_block                65536 # Maximum number of registers per CTA. (default 8192)
-gpgpu_ignore_resources_limitation                    0 # gpgpu_ignore_resources_limitation (default 0)
-gpgpu_shader_cta                      32 # Maximum number of concurrent CTAs in shader (default 32)
-gpgpu_num_cta_barriers                   16 # Maximum number of named barriers per CTA (default 16)
-gpgpu_n_clusters                      46 # number of processing clusters
-gpgpu_n_cores_per_cluster                    1 # number of simd cores per cluster
-gpgpu_n_cluster_ejection_buffer_size                   32 # number of packets in ejection buffer
-gpgpu_n_ldst_response_buffer_size                    2 # number of response packets in ld/st unit ejection buffer
-gpgpu_shmem_per_block                49152 # Size of shared memory per thread block or CTA (default 48kB)
-gpgpu_shmem_size                  102400 # Size of shared memory per shader core (default 16kB)
-gpgpu_shmem_option      0,8,16,32,64,100 # Option list of shared memory sizes
-gpgpu_unified_l1d_size                  128 # Size of unified data cache(L1D + shared memory) in KB
-gpgpu_adaptive_cache_config                    1 # adaptive_cache_config
-gpgpu_shmem_sizeDefault               102400 # Size of shared memory per shader core (default 16kB)
-gpgpu_shmem_size_PrefL1                16384 # Size of shared memory per shader core (default 16kB)
-gpgpu_shmem_size_PrefShared                16384 # Size of shared memory per shader core (default 16kB)
-gpgpu_shmem_num_banks                   32 # Number of banks in the shared memory in each shader core (default 16)
-gpgpu_shmem_limited_broadcast                    0 # Limit shared memory to do one broadcast per cycle (default on)
-gpgpu_shmem_warp_parts                    1 # Number of portions a warp is divided into for shared memory bank conflict check 
-gpgpu_mem_unit_ports                    1 # The number of memory transactions allowed per core cycle
-gpgpu_shmem_warp_parts                    1 # Number of portions a warp is divided into for shared memory bank conflict check 
-gpgpu_warpdistro_shader                   -1 # Specify which shader core to collect the warp size distribution from
-gpgpu_warp_issue_shader                    0 # Specify which shader core to collect the warp issue distribution from
-gpgpu_local_mem_map                    1 # Mapping from local memory space address to simulated GPU physical address space (default = enabled)
-gpgpu_num_reg_banks                    8 # Number of register banks (default = 8)
-gpgpu_reg_bank_use_warp_id                    0 # Use warp ID in mapping registers to banks (default = off)
-gpgpu_sub_core_model                    1 # Sub Core Volta/Pascal model (default = off)
-gpgpu_enable_specialized_operand_collector                    0 # enable_specialized_operand_collector
-gpgpu_operand_collector_num_units_sp                    4 # number of collector units (default = 4)
-gpgpu_operand_collector_num_units_dp                    0 # number of collector units (default = 0)
-gpgpu_operand_collector_num_units_sfu                    4 # number of collector units (default = 4)
-gpgpu_operand_collector_num_units_int                    0 # number of collector units (default = 0)
-gpgpu_operand_collector_num_units_tensor_core                    4 # number of collector units (default = 4)
-gpgpu_operand_collector_num_units_mem                    2 # number of collector units (default = 2)
-gpgpu_operand_collector_num_units_gen                    8 # number of collector units (default = 0)
-gpgpu_operand_collector_num_in_ports_sp                    1 # number of collector unit in ports (default = 1)
-gpgpu_operand_collector_num_in_ports_dp                    0 # number of collector unit in ports (default = 0)
-gpgpu_operand_collector_num_in_ports_sfu                    1 # number of collector unit in ports (default = 1)
-gpgpu_operand_collector_num_in_ports_int                    0 # number of collector unit in ports (default = 0)
-gpgpu_operand_collector_num_in_ports_tensor_core                    1 # number of collector unit in ports (default = 1)
-gpgpu_operand_collector_num_in_ports_mem                    1 # number of collector unit in ports (default = 1)
-gpgpu_operand_collector_num_in_ports_gen                    8 # number of collector unit in ports (default = 0)
-gpgpu_operand_collector_num_out_ports_sp                    1 # number of collector unit in ports (default = 1)
-gpgpu_operand_collector_num_out_ports_dp                    0 # number of collector unit in ports (default = 0)
-gpgpu_operand_collector_num_out_ports_sfu                    1 # number of collector unit in ports (default = 1)
-gpgpu_operand_collector_num_out_ports_int                    0 # number of collector unit in ports (default = 0)
-gpgpu_operand_collector_num_out_ports_tensor_core                    1 # number of collector unit in ports (default = 1)
-gpgpu_operand_collector_num_out_ports_mem                    1 # number of collector unit in ports (default = 1)
-gpgpu_operand_collector_num_out_ports_gen                    8 # number of collector unit in ports (default = 0)
-gpgpu_coalesce_arch                   86 # Coalescing arch (GT200 = 13, Fermi = 20)
-gpgpu_num_sched_per_core                    4 # Number of warp schedulers per core
-gpgpu_max_insn_issue_per_warp                    1 # Max number of instructions that can be issued per warp in one cycle by scheduler (either 1 or 2)
-gpgpu_dual_issue_diff_exec_units                    1 # should dual issue use two different execution unit resources (Default = 1)
-gpgpu_simt_core_sim_order                    1 # Select the simulation order of cores in a cluster (0=Fix, 1=Round-Robin)
-gpgpu_pipeline_widths 4,4,4,4,4,4,4,4,4,4,8,4,4 # Pipeline widths ID_OC_SP,ID_OC_DP,ID_OC_INT,ID_OC_SFU,ID_OC_MEM,OC_EX_SP,OC_EX_DP,OC_EX_INT,OC_EX_SFU,OC_EX_MEM,EX_WB,ID_OC_TENSOR_CORE,OC_EX_TENSOR_CORE
-gpgpu_tensor_core_avail                    1 # Tensor Core Available (default=0)
-gpgpu_num_sp_units                     4 # Number of SP units (default=1)
-gpgpu_num_dp_units                     4 # Number of DP units (default=0)
-gpgpu_num_int_units                    4 # Number of INT units (default=0)
-gpgpu_num_sfu_units                    4 # Number of SF units (default=1)
-gpgpu_num_tensor_core_units                    4 # Number of tensor_core units (default=1)
-gpgpu_num_mem_units                    1 # Number if ldst units (default=1) WARNING: not hooked up to anything
-gpgpu_scheduler                      lrr # Scheduler configuration: < lrr | gto | two_level_active > If two_level_active:<num_active_warps>:<inner_prioritization>:<outer_prioritization>For complete list of prioritization values see shader.h enum scheduler_prioritization_typeDefault: gto
-gpgpu_concurrent_kernel_sm                    0 # Support concurrent kernels on a SM (default = disabled)
-gpgpu_perfect_inst_const_cache                    1 # perfect inst and const cache mode, so all inst and const hits in the cache(default = disabled)
-gpgpu_inst_fetch_throughput                    4 # the number of fetched intruction per warp each cycle
-gpgpu_reg_file_port_throughput                    2 # the number ports of the register file
-specialized_unit_1         1,4,4,4,4,BRA # specialized unit config {<enabled>,<num_units>:<latency>:<initiation>,<ID_OC_SPEC>:<OC_EX_SPEC>,<NAME>}
-specialized_unit_2       1,4,200,4,4,TEX # specialized unit config {<enabled>,<num_units>:<latency>:<initiation>,<ID_OC_SPEC>:<OC_EX_SPEC>,<NAME>}
-specialized_unit_3     1,4,32,4,4,TENSOR # specialized unit config {<enabled>,<num_units>:<latency>:<initiation>,<ID_OC_SPEC>:<OC_EX_SPEC>,<NAME>}
-specialized_unit_4         1,4,4,4,4,UDP # specialized unit config {<enabled>,<num_units>:<latency>:<initiation>,<ID_OC_SPEC>:<OC_EX_SPEC>,<NAME>}
-specialized_unit_5         0,4,4,4,4,BRA # specialized unit config {<enabled>,<num_units>:<latency>:<initiation>,<ID_OC_SPEC>:<OC_EX_SPEC>,<NAME>}
-specialized_unit_6         0,4,4,4,4,BRA # specialized unit config {<enabled>,<num_units>:<latency>:<initiation>,<ID_OC_SPEC>:<OC_EX_SPEC>,<NAME>}
-specialized_unit_7         0,4,4,4,4,BRA # specialized unit config {<enabled>,<num_units>:<latency>:<initiation>,<ID_OC_SPEC>:<OC_EX_SPEC>,<NAME>}
-specialized_unit_8         0,4,4,4,4,BRA # specialized unit config {<enabled>,<num_units>:<latency>:<initiation>,<ID_OC_SPEC>:<OC_EX_SPEC>,<NAME>}
-gpgpu_perf_sim_memcpy                    1 # Fill the L2 cache on memcpy
-gpgpu_simple_dram_model                    0 # simple_dram_model with fixed latency and BW
-gpgpu_dram_scheduler                    1 # 0 = fifo, 1 = FR-FCFS (defaul)
-gpgpu_dram_partition_queues          64:64:64:64 # i2$:$2d:d2$:$2i
-l2_ideal                               0 # Use a ideal L2 cache that always hit
-gpgpu_cache:dl2     S:64:128:16,L:B:m:L:P,A:192:4,32:0,32 # unified banked L2 data cache config  {<sector?>:<nsets>:<bsize>:<assoc>,<rep>:<wr>:<alloc>:<wr_alloc>:<set_index_fn>,<mshr>:<N>:<merge>,<mq>:<fifo_entry>,<data_port_width>
-gpgpu_cache:dl2_texture_only                    0 # L2 cache used for texture only
-gpgpu_n_mem                            0 # number of memory modules (e.g. memory controllers) in gpu
-gpgpu_n_sub_partition_per_mchannel                    2 # number of memory subpartition in each memory module
-gpgpu_n_mem_per_ctrlr                    1 # number of memory chips per memory controller
-gpgpu_memlatency_stat                   14 # track and display latency statistics 0x2 enables MC, 0x4 enables queue logs
-gpgpu_frfcfs_dram_sched_queue_size                   64 # 0 = unlimited (default); # entries per chip
-gpgpu_dram_return_queue_size                  192 # 0 = unlimited (default); # entries per chip
-gpgpu_dram_buswidth                    2 # default = 4 bytes (8 bytes per cycle at DDR)
-gpgpu_dram_burst_length                   16 # Burst length of each DRAM request (default = 4 data bus cycle)
-dram_data_command_freq_ratio                    4 # Frequency ratio between DRAM data bus and command bus (default = 2 times, i.e. DDR)
-gpgpu_dram_timing_opt nbk=16:CCD=4:RRD=12:RCD=24:RAS=55:RP=24:RC=78:CL=24:WL=8:CDLR=10:WR=24:nbkgrp=4:CCDL=6:RTPL=4 # DRAM timing parameters = {nbk:tCCD:tRRD:tRCD:tRAS:tRP:tRC:CL:WL:tCDLR:tWR:nbkgrp:tCCDL:tRTPL}
-gpgpu_l2_rop_latency                  187 # ROP queue latency (default 85)
-dram_latency                         254 # DRAM latency (default 30)
-dram_dual_bus_interface                    0 # dual_bus_interface (default = 0) 
-dram_bnk_indexing_policy                    0 # dram_bnk_indexing_policy (0 = normal indexing, 1 = Xoring with the higher bits) (Default = 0)
-dram_bnkgrp_indexing_policy                    1 # dram_bnkgrp_indexing_policy (0 = take higher bits, 1 = take lower bits) (Default = 0)
-dram_seperate_write_queue_enable                    0 # Seperate_Write_Queue_Enable
-dram_write_queue_size             32:28:16 # Write_Queue_Size
-dram_elimnate_rw_turnaround                    0 # elimnate_rw_turnaround i.e set tWTR and tRTW = 0
-icnt_flit_size                        40 # icnt_flit_size
-SST_mode                               0 # SST mode
-HBM_gpgpu_n_mem                       16 # number of memory modules (e.g. memory controllers) in gpu
-gpgpu_mem_addr_mapping dramid@8;00000000.00000000.00000000.00000000.0000RRRR.RRRRRRRR.RBBBCCCC.BCCSSSSS # mapping memory address to dram model {dramid@<start bit>;<memory address map>}
-gpgpu_mem_addr_test                    0 # run sweep test to check address mapping for aliased address
-gpgpu_mem_address_mask                    1 # 0 = old addressing mask, 1 = new addressing mask, 2 = new add. mask + flipped bank sel and chip sel bits
-gpgpu_memory_partition_indexing                    4 # 0 = no indexing, 1 = bitwise xoring, 2 = IPoly, 3 = custom indexing
-gpgpu_perf_sim_memcpy                    1 # Fill the L2 cache on memcpy
-gpgpu_simple_dram_model                    0 # simple_dram_model with fixed latency and BW
-gpgpu_dram_scheduler                    1 # 0 = fifo, 1 = FR-FCFS (defaul)
-gpgpu_dram_partition_queues          64:64:64:64 # i2$:$2d:d2$:$2i
-l2_ideal                               0 # Use a ideal L2 cache that always hit
-gpgpu_cache:dl2     S:64:128:16,L:B:m:L:P,A:192:4,32:0,32 # unified banked L2 data cache config  {<sector?>:<nsets>:<bsize>:<assoc>,<rep>:<wr>:<alloc>:<wr_alloc>:<set_index_fn>,<mshr>:<N>:<merge>,<mq>:<fifo_entry>,<data_port_width>
-gpgpu_cache:dl2_texture_only                    0 # L2 cache used for texture only
-gpgpu_n_mem_per_ctrlr                    1 # number of memory chips per memory controller
-gpgpu_memlatency_stat                   14 # track and display latency statistics 0x2 enables MC, 0x4 enables queue logs
-gpgpu_frfcfs_dram_sched_queue_size                   64 # 0 = unlimited (default); # entries per chip
-gpgpu_dram_return_queue_size                  192 # 0 = unlimited (default); # entries per chip
-gpgpu_dram_burst_length                    2 # Burst length of each DRAM request (default = 4 data bus cycle)
-dram_data_command_freq_ratio                    2 # Frequency ratio between DRAM data bus and command bus (default = 2 times, i.e. DDR)
-gpgpu_dram_timing_opt nbk=16:CCD=1:RRD=7:RCD=22:RAS=50:RP=22:RC=72:CL=22:WL=4:CDLR=5:WR=19:nbkgrp=4:CCDL=4:RTPL=7 # DRAM timing parameters = {nbk:tCCD:tRRD:tRCD:tRAS:tRP:tRC:CL:WL:tCDLR:tWR:nbkgrp:tCCDL:tRTPL}
-gpgpu_l2_rop_latency                  187 # ROP queue latency (default 85)
-dram_latency                         190 # DRAM latency (default 30)
-dram_dual_bus_interface                    1 # dual_bus_interface (default = 0) 
-dram_bnk_indexing_policy                    0 # dram_bnk_indexing_policy (0 = normal indexing, 1 = Xoring with the higher bits) (Default = 0)
-dram_bnkgrp_indexing_policy                    1 # dram_bnkgrp_indexing_policy (0 = take higher bits, 1 = take lower bits) (Default = 0)
-dram_seperate_write_queue_enable                    0 # Seperate_Write_Queue_Enable
-dram_write_queue_size             32:28:16 # Write_Queue_Size
-dram_elimnate_rw_turnaround                    0 # elimnate_rw_turnaround i.e set tWTR and tRTW = 0
-icnt_flit_size                        40 # icnt_flit_size
-SST_mode                               0 # SST mode
-gpgpu_n_mem                            0 # number of memory modules (e.g. memory controllers) in gpu
-HBM_gpgpu_n_mem                       16 # number of memory modules (e.g. memory controllers) in gpu
-HBM_dram_latency                     190 # DRAM latency (default 30)
-gpgpu_dram_scheduler                    1 # 0 = fifo, 1 = FR-FCFS (defaul)
-HBM_gpgpu_n_mem_per_ctrlr                    1 # number of memory chips per memory controller
-HBM_gpgpu_dram_buswidth                   16 # default = 4 bytes (8 bytes per cycle at DDR)
-gpgpu_dram_burst_length                    2 # Burst length of each DRAM request (default = 4 data bus cycle)
-HBM_gpgpu_dram_burst_length                    2 # Burst length of each DRAM request (default = 4 data bus cycle)
-HBM_dram_data_command_freq_ratio                    2 # Frequency ratio between DRAM data bus and command bus (default = 2 times, i.e. DDR)
-HBM_gpgpu_dram_timing_opt nbk=16:CCD=1:RRD=7:RCD=22:RAS=50:RP=22:RC=72:CL=22:WL=4:CDLR=5:WR=19:nbkgrp=4:CCDL=4:RTPL=7 # DRAM timing parameters = {nbk:tCCD:tRRD:tRCD:tRAS:tRP:tRC:CL:WL:tCDLR:tWR:nbkgrp:tCCDL:tRTPL}
-HBM_dram_dual_bus_interface                    1 # dual_bus_interface (default = 0) 
-HBM_dram_dual_bus_interface                    1 # dual_bus_interface (default = 0) 
-HBM_dram_bnk_indexing_policy                    0 # dram_bnk_indexing_policy (0 = normal indexing, 1 = Xoring with the higher bits) (Default = 0)
-HBM_dram_bnkgrp_indexing_policy                    1 # dram_bnkgrp_indexing_policy (0 = take higher bits, 1 = take lower bits) (Default = 0)
-HBM_gpgpu_n_sub_partition_per_mchannel                    2 # number of memory subpartition in each memory module
-gpgpu_mem_addr_mapping dramid@8;00000000.00000000.00000000.00000000.0000RRRR.RRRRRRRR.RBBBCCCC.BCCSSSSS # mapping memory address to dram model {dramid@<start bit>;<memory address map>}
-gpgpu_mem_addr_test                    0 # run sweep test to check address mapping for aliased address
-gpgpu_mem_address_mask                    1 # 0 = old addressing mask, 1 = new addressing mask, 2 = new add. mask + flipped bank sel and chip sel bits
-gpgpu_memory_partition_indexing                    4 # 0 = no indexing, 1 = bitwise xoring, 2 = IPoly, 3 = custom indexing
-accelwattch_xml_file accelwattch_sass_sim.xml # AccelWattch XML file
-power_simulation_enabled                    0 # Turn on power simulator (1=On, 0=Off)
-power_per_cycle_dump                    0 # Dump detailed power output each cycle
-hw_perf_file_name            hw_perf.csv # Hardware Performance Statistics file
-hw_perf_bench_name                       # Kernel Name in Hardware Performance Statistics file
-power_simulation_mode                    0 # Switch performance counter input for power simulation (0=Sim, 1=HW, 2=HW-Sim Hybrid)
-dvfs_enabled                           0 # Turn on DVFS for power model
-aggregate_power_stats                    0 # Accumulate power across all kernels
-accelwattch_hybrid_perfsim_L1_RH                    0 # Get L1 Read Hits for Accelwattch-Hybrid from Accel-Sim
-accelwattch_hybrid_perfsim_L1_RM                    0 # Get L1 Read Misses for Accelwattch-Hybrid from Accel-Sim
-accelwattch_hybrid_perfsim_L1_WH                    0 # Get L1 Write Hits for Accelwattch-Hybrid from Accel-Sim
-accelwattch_hybrid_perfsim_L1_WM                    0 # Get L1 Write Misses for Accelwattch-Hybrid from Accel-Sim
-accelwattch_hybrid_perfsim_L2_RH                    0 # Get L2 Read Hits for Accelwattch-Hybrid from Accel-Sim
-accelwattch_hybrid_perfsim_L2_RM                    0 # Get L2 Read Misses for Accelwattch-Hybrid from Accel-Sim
-accelwattch_hybrid_perfsim_L2_WH                    0 # Get L2 Write Hits for Accelwattch-Hybrid from Accel-Sim
-accelwattch_hybrid_perfsim_L2_WM                    0 # Get L2 Write Misses for Accelwattch-Hybrid from Accel-Sim
-accelwattch_hybrid_perfsim_CC_ACC                    0 # Get Constant Cache Acesses for Accelwattch-Hybrid from Accel-Sim
-accelwattch_hybrid_perfsim_SHARED_ACC                    0 # Get Shared Memory Acesses for Accelwattch-Hybrid from Accel-Sim
-accelwattch_hybrid_perfsim_DRAM_RD                    0 # Get DRAM Reads for Accelwattch-Hybrid from Accel-Sim
-accelwattch_hybrid_perfsim_DRAM_WR                    0 # Get DRAM Writes for Accelwattch-Hybrid from Accel-Sim
-accelwattch_hybrid_perfsim_NOC                    0 # Get Interconnect Acesses for Accelwattch-Hybrid from Accel-Sim
-accelwattch_hybrid_perfsim_PIPE_DUTY                    0 # Get Pipeline Duty Cycle Acesses for Accelwattch-Hybrid from Accel-Sim
-accelwattch_hybrid_perfsim_NUM_SM_IDLE                    0 # Get Number of Idle SMs for Accelwattch-Hybrid from Accel-Sim
-accelwattch_hybrid_perfsim_CYCLES                    0 # Get Executed Cycles for Accelwattch-Hybrid from Accel-Sim
-accelwattch_hybrid_perfsim_VOLTAGE                    0 # Get Chip Voltage for Accelwattch-Hybrid from Accel-Sim
-power_trace_enabled                    0 # produce a file for the power trace (1=On, 0=Off)
-power_trace_zlevel                     6 # Compression level of the power trace output log (0=no comp, 9=highest)
-steady_power_levels_enabled                    0 # produce a file for the steady power levels (1=On, 0=Off)
-steady_state_definition                  8:4 # allowed deviation:number of samples
-gpgpu_max_cycle                        0 # terminates gpu simulation early (0 = no limit)
-gpgpu_max_insn                         0 # terminates gpu simulation early (0 = no limit)
-gpgpu_max_cta                          0 # terminates gpu simulation early (0 = no limit)
-gpgpu_max_completed_cta                    0 # terminates gpu simulation early (0 = no limit)
-gpgpu_runtime_stat                   500 # display runtime statistics such as dram utilization {<freq>:<flag>}
-liveness_message_freq                    1 # Minimum number of seconds between simulation liveness messages (0 = always print)
-gpgpu_compute_capability_major                    8 # Major compute capability version number
-gpgpu_compute_capability_minor                    6 # Minor compute capability version number
-gpgpu_flush_l1_cache                    1 # Flush L1 cache at the end of each kernel call
-gpgpu_flush_l2_cache                    0 # Flush L2 cache at the end of each kernel call
-gpgpu_deadlock_detect                    1 # Stop the simulation at deadlock (1=on (default), 0=off)
-gpgpu_ptx_instruction_classification                    0 # if enabled will classify ptx instruction types per kernel (Max 255 kernels now)
-gpgpu_ptx_sim_mode                     0 # Select between Performance (default) or Functional simulation (1)
-gpgpu_clock_domains 1132:1132:1132:3500.5:1512 # Clock Domain Frequencies in MhZ {<Core Clock>:<ICNT Clock>:<L2 Clock>:<DRAM Clock>}
-gpgpu_max_concurrent_kernel                  128 # maximum kernels that can run concurrently on GPU, set this value according to max resident grids for your compute capability
-gpgpu_cflog_interval                    0 # Interval between each snapshot in control flow logger
-visualizer_enabled                     0 # Turn on visualizer output (1=On, 0=Off)
-visualizer_outputfile                 NULL # Specifies the output log file for visualizer
-visualizer_zlevel                      6 # Compression level of the visualizer output log (0=no comp, 9=highest)
-gpgpu_stack_size_limit                 1024 # GPU thread stack size
-gpgpu_heap_size_limit              8388608 # GPU malloc heap size 
-gpgpu_runtime_sync_depth_limit                    2 # GPU device runtime synchronize depth
-gpgpu_runtime_pending_launch_count_limit                 2048 # GPU device runtime pending launch count
-trace_enabled                          0 # Turn on traces
-trace_components                    none # comma seperated list of traces to enable. Complete list found in trace_streams.tup. Default none
-trace_sampling_core                    0 # The core which is printed using CORE_DPRINTF. Default 0
-trace_sampling_memory_partition                   -1 # The memory partition which is printed using MEMPART_DPRINTF. Default -1 (i.e. all)
-enable_ptx_file_line_stats                    1 # Turn on PTX source line statistic profiling. (1 = On)
-ptx_line_stats_filename gpgpu_inst_stats.txt # Output file for PTX source line statistics.
-gpgpu_kernel_launch_latency                 5000 # Kernel launch latency in cycles. Default: 0
-gpgpu_cdp_enabled                      0 # Turn on CDP
-gpgpu_TB_launch_latency                    0 # thread block launch latency in cycles. Default: 0
-trace               /root/Repos/shared/accel-sim-framework/hw_run/traces/device-0/12.8/srad_v2-rodinia-2.0-ft/__data_matrix128x128_txt_0_127_0_127__5_2___data_result_matrix128x128_1_150_1_100__5_2_txt/traces/kernelslist.g # traces kernel filetraces kernel file directory
-trace_opcode_latency_initiation_int                  2,2 # Opcode latencies and initiation for integers in trace driven mode <latency,initiation>
-trace_opcode_latency_initiation_sp                  2,1 # Opcode latencies and initiation for sp in trace driven mode <latency,initiation>
-trace_opcode_latency_initiation_dp                64,64 # Opcode latencies and initiation for dp in trace driven mode <latency,initiation>
-trace_opcode_latency_initiation_sfu                 21,8 # Opcode latencies and initiation for sfu in trace driven mode <latency,initiation>
-trace_opcode_latency_initiation_tensor                32,32 # Opcode latencies and initiation for tensor in trace driven mode <latency,initiation>
-trace_opcode_latency_initiation_spec_op_1                  4,4 # specialized unit config <latency,initiation>
-trace_opcode_latency_initiation_spec_op_2                200,4 # specialized unit config <latency,initiation>
-trace_opcode_latency_initiation_spec_op_3                32,32 # specialized unit config <latency,initiation>
-trace_opcode_latency_initiation_spec_op_4                  4,1 # specialized unit config <latency,initiation>
-trace_opcode_latency_initiation_spec_op_5                  4,4 # specialized unit config <latency,initiation>
-trace_opcode_latency_initiation_spec_op_6                  4,4 # specialized unit config <latency,initiation>
-trace_opcode_latency_initiation_spec_op_7                  4,4 # specialized unit config <latency,initiation>
-trace_opcode_latency_initiation_spec_op_8                  4,4 # specialized unit config <latency,initiation>
setting max warps per shader = 48 
DRAM Timing Options:
nbk                                    16 # number of banks
CCD                                     4 # column to column delay
RRD                                    12 # minimal delay between activation of rows in different banks
RCD                                    24 # row to column delay
RAS                                    55 # time needed to activate row
RP                                     24 # time needed to precharge (deactivate) row
RC                                     78 # row cycle time
CDLR                                   10 # switching from write to read (changes tWTR)
WR                                     24 # last data-in to row precharge
CL                                     24 # CAS latency
WL                                      8 # Write latency
nbkgrp                                  4 # number of bank groups
CCDL                                    6 # column to column delay between accesses to different bank groups
RTPL                                    4 # read to precharge delay between accesses to different bank groups
Total number of memory sub partition = 0
addr_dec_mask[CHIP]  = 0000000000000f00 	high:12 low:8
addr_dec_mask[BK]    = 0000000000070080 	high:19 low:7
addr_dec_mask[ROW]   = 00000000fff80000 	high:32 low:19
addr_dec_mask[COL]   = 000000000000f07f 	high:16 low:0
addr_dec_mask[BURST] = 000000000000001f 	high:5 low:0
sub_partition_id_mask = 0000000000000080
DRAM Timing Options:
nbk                                    16 # number of banks
CCD                                     1 # column to column delay
RRD                                     7 # minimal delay between activation of rows in different banks
RCD                                    22 # row to column delay
RAS                                    50 # time needed to activate row
RP                                     22 # time needed to precharge (deactivate) row
RC                                     72 # row cycle time
CDLR                                    5 # switching from write to read (changes tWTR)
WR                                     19 # last data-in to row precharge
CL                                     22 # CAS latency
WL                                      4 # Write latency
nbkgrp                                  4 # number of bank groups
CCDL                                    4 # column to column delay between accesses to different bank groups
RTPL                                    7 # read to precharge delay between accesses to different bank groups
Total number of memory sub partition = 32
addr_dec_mask[CHIP]  = 0000000000000f00 	high:12 low:8
addr_dec_mask[BK]    = 0000000000070080 	high:19 low:7
addr_dec_mask[ROW]   = 00000000fff80000 	high:32 low:19
addr_dec_mask[COL]   = 000000000000f07f 	high:16 low:0
addr_dec_mask[BURST] = 000000000000001f 	high:5 low:0
sub_partition_id_mask = 0000000000000080
GPGPU-Sim uArch: clock freqs: 1132000000.000000:1132000000.000000:1132000000.000000:3500500000.000000:1512000000.000000
GPGPU-Sim uArch: clock periods: 0.00000000088339222615:0.00000000088339222615:0.00000000088339222615:0.00000000028567347522:0.00000000066137566138
gpgpu_sim end of init max shader per core: 48 
*** Initializing Memory Statistics ***
GPGPU-Sim uArch: performance model initialization complete.
launching memcpy command : MemcpyHtoD,0x00007f99aae00000,65536
Processing kernel /root/Repos/shared/accel-sim-framework/hw_run/traces/device-0/12.8/srad_v2-rodinia-2.0-ft/__data_matrix128x128_txt_0_127_0_127__5_2___data_result_matrix128x128_1_150_1_100__5_2_txt/traces/kernel-1-ctx_0x55c61387dff0.traceg.xz
-kernel name = _Z11srad_cuda_1PfS_S_S_S_S_iif
-kernel id = 1
-grid dim = (8,8,1)
-block dim = (16,16,1)
-shmem = 6144
-nregs = 23
-binary version = 86
-cuda stream id = 0
-shmem base_addr = 0x00007f99c9000000
-local mem base_addr = 0x00007f99c7000000
-nvbit version = 1.7.6
-accelsim tracer version = 5
-enable lineinfo = 0
Header info loaded for kernel command : /root/Repos/shared/accel-sim-framework/hw_run/traces/device-0/12.8/srad_v2-rodinia-2.0-ft/__data_matrix128x128_txt_0_127_0_127__5_2___data_result_matrix128x128_1_150_1_100__5_2_txt/traces/kernel-1-ctx_0x55c61387dff0.traceg.xz
launching kernel name: _Z11srad_cuda_1PfS_S_S_S_S_iif uid: 1 cuda_stream_id: 0
GPGPU-Sim uArch: Shader 0 bind to kernel 1 '_Z11srad_cuda_1PfS_S_S_S_S_iif'
GPGPU-Sim uArch: CTA/core = 6, limited by: threads
GPGPU-Sim: Reconfigure L1 cache to 112KB
thread block = 0,0,0
GPGPU-Sim uArch: Shader 1 bind to kernel 1 '_Z11srad_cuda_1PfS_S_S_S_S_iif'
thread block = 1,0,0
GPGPU-Sim uArch: Shader 2 bind to kernel 1 '_Z11srad_cuda_1PfS_S_S_S_S_iif'
thread block = 2,0,0
GPGPU-Sim uArch: Shader 3 bind to kernel 1 '_Z11srad_cuda_1PfS_S_S_S_S_iif'
thread block = 3,0,0
GPGPU-Sim uArch: Shader 4 bind to kernel 1 '_Z11srad_cuda_1PfS_S_S_S_S_iif'
thread block = 4,0,0
GPGPU-Sim uArch: Shader 5 bind to kernel 1 '_Z11srad_cuda_1PfS_S_S_S_S_iif'
thread block = 5,0,0
GPGPU-Sim uArch: Shader 6 bind to kernel 1 '_Z11srad_cuda_1PfS_S_S_S_S_iif'
thread block = 6,0,0
GPGPU-Sim uArch: Shader 7 bind to kernel 1 '_Z11srad_cuda_1PfS_S_S_S_S_iif'
thread block = 7,0,0
GPGPU-Sim uArch: Shader 8 bind to kernel 1 '_Z11srad_cuda_1PfS_S_S_S_S_iif'
thread block = 0,1,0
GPGPU-Sim uArch: Shader 9 bind to kernel 1 '_Z11srad_cuda_1PfS_S_S_S_S_iif'
thread block = 1,1,0
GPGPU-Sim uArch: Shader 10 bind to kernel 1 '_Z11srad_cuda_1PfS_S_S_S_S_iif'
thread block = 2,1,0
GPGPU-Sim uArch: Shader 11 bind to kernel 1 '_Z11srad_cuda_1PfS_S_S_S_S_iif'
thread block = 3,1,0
GPGPU-Sim uArch: Shader 12 bind to kernel 1 '_Z11srad_cuda_1PfS_S_S_S_S_iif'
thread block = 4,1,0
GPGPU-Sim uArch: Shader 13 bind to kernel 1 '_Z11srad_cuda_1PfS_S_S_S_S_iif'
thread block = 5,1,0
GPGPU-Sim uArch: Shader 14 bind to kernel 1 '_Z11srad_cuda_1PfS_S_S_S_S_iif'
thread block = 6,1,0
GPGPU-Sim uArch: Shader 15 bind to kernel 1 '_Z11srad_cuda_1PfS_S_S_S_S_iif'
thread block = 7,1,0
GPGPU-Sim uArch: Shader 16 bind to kernel 1 '_Z11srad_cuda_1PfS_S_S_S_S_iif'
thread block = 0,2,0
GPGPU-Sim uArch: Shader 17 bind to kernel 1 '_Z11srad_cuda_1PfS_S_S_S_S_iif'
thread block = 1,2,0
GPGPU-Sim uArch: Shader 18 bind to kernel 1 '_Z11srad_cuda_1PfS_S_S_S_S_iif'
thread block = 2,2,0
GPGPU-Sim uArch: Shader 19 bind to kernel 1 '_Z11srad_cuda_1PfS_S_S_S_S_iif'
thread block = 3,2,0
GPGPU-Sim uArch: Shader 20 bind to kernel 1 '_Z11srad_cuda_1PfS_S_S_S_S_iif'
thread block = 4,2,0
GPGPU-Sim uArch: Shader 21 bind to kernel 1 '_Z11srad_cuda_1PfS_S_S_S_S_iif'
thread block = 5,2,0
GPGPU-Sim uArch: Shader 22 bind to kernel 1 '_Z11srad_cuda_1PfS_S_S_S_S_iif'
thread block = 6,2,0
GPGPU-Sim uArch: Shader 23 bind to kernel 1 '_Z11srad_cuda_1PfS_S_S_S_S_iif'
thread block = 7,2,0
GPGPU-Sim uArch: Shader 24 bind to kernel 1 '_Z11srad_cuda_1PfS_S_S_S_S_iif'
thread block = 0,3,0
GPGPU-Sim uArch: Shader 25 bind to kernel 1 '_Z11srad_cuda_1PfS_S_S_S_S_iif'
thread block = 1,3,0
GPGPU-Sim uArch: Shader 26 bind to kernel 1 '_Z11srad_cuda_1PfS_S_S_S_S_iif'
thread block = 2,3,0
GPGPU-Sim uArch: Shader 27 bind to kernel 1 '_Z11srad_cuda_1PfS_S_S_S_S_iif'
thread block = 3,3,0
GPGPU-Sim uArch: Shader 28 bind to kernel 1 '_Z11srad_cuda_1PfS_S_S_S_S_iif'
thread block = 4,3,0
GPGPU-Sim uArch: Shader 29 bind to kernel 1 '_Z11srad_cuda_1PfS_S_S_S_S_iif'
thread block = 5,3,0
GPGPU-Sim uArch: Shader 30 bind to kernel 1 '_Z11srad_cuda_1PfS_S_S_S_S_iif'
thread block = 6,3,0
GPGPU-Sim uArch: Shader 31 bind to kernel 1 '_Z11srad_cuda_1PfS_S_S_S_S_iif'
thread block = 7,3,0
GPGPU-Sim uArch: Shader 32 bind to kernel 1 '_Z11srad_cuda_1PfS_S_S_S_S_iif'
thread block = 0,4,0
GPGPU-Sim uArch: Shader 33 bind to kernel 1 '_Z11srad_cuda_1PfS_S_S_S_S_iif'
thread block = 1,4,0
GPGPU-Sim uArch: Shader 34 bind to kernel 1 '_Z11srad_cuda_1PfS_S_S_S_S_iif'
thread block = 2,4,0
GPGPU-Sim uArch: Shader 35 bind to kernel 1 '_Z11srad_cuda_1PfS_S_S_S_S_iif'
thread block = 3,4,0
GPGPU-Sim uArch: Shader 36 bind to kernel 1 '_Z11srad_cuda_1PfS_S_S_S_S_iif'
thread block = 4,4,0
GPGPU-Sim uArch: Shader 37 bind to kernel 1 '_Z11srad_cuda_1PfS_S_S_S_S_iif'
thread block = 5,4,0
GPGPU-Sim uArch: Shader 38 bind to kernel 1 '_Z11srad_cuda_1PfS_S_S_S_S_iif'
thread block = 6,4,0
GPGPU-Sim uArch: Shader 39 bind to kernel 1 '_Z11srad_cuda_1PfS_S_S_S_S_iif'
thread block = 7,4,0
GPGPU-Sim uArch: Shader 40 bind to kernel 1 '_Z11srad_cuda_1PfS_S_S_S_S_iif'
thread block = 0,5,0
GPGPU-Sim uArch: Shader 41 bind to kernel 1 '_Z11srad_cuda_1PfS_S_S_S_S_iif'
thread block = 1,5,0
GPGPU-Sim uArch: Shader 42 bind to kernel 1 '_Z11srad_cuda_1PfS_S_S_S_S_iif'
thread block = 2,5,0
GPGPU-Sim uArch: Shader 43 bind to kernel 1 '_Z11srad_cuda_1PfS_S_S_S_S_iif'
thread block = 3,5,0
GPGPU-Sim uArch: Shader 44 bind to kernel 1 '_Z11srad_cuda_1PfS_S_S_S_S_iif'
thread block = 4,5,0
GPGPU-Sim uArch: Shader 45 bind to kernel 1 '_Z11srad_cuda_1PfS_S_S_S_S_iif'
thread block = 5,5,0
thread block = 6,5,0
thread block = 7,5,0
thread block = 0,6,0
thread block = 1,6,0
thread block = 2,6,0
thread block = 3,6,0
thread block = 4,6,0
thread block = 5,6,0
thread block = 6,6,0
thread block = 7,6,0
thread block = 0,7,0
thread block = 1,7,0
thread block = 2,7,0
thread block = 3,7,0
thread block = 4,7,0
thread block = 5,7,0
thread block = 6,7,0
thread block = 7,7,0
Destroy streams for kernel 1: size 0
kernel_name = _Z11srad_cuda_1PfS_S_S_S_S_iif 
kernel_launch_uid = 1 
kernel_stream_id = 0
gpu_sim_cycle = 10008
gpu_sim_insn = 2899761
gpu_ipc =     289.7443
gpu_tot_sim_cycle = 10008
gpu_tot_sim_insn = 2899761
gpu_tot_ipc =     289.7443
gpu_tot_issued_cta = 64
gpu_occupancy = 23.4486% 
gpu_tot_occupancy = 23.4486% 
max_total_param_size = 0
gpu_stall_dramfull = 0
gpu_stall_icnt2sh    = 0
partiton_level_parallism =       1.4580
partiton_level_parallism_total  =       1.4580
partiton_level_parallism_util =       5.8839
partiton_level_parallism_util_total  =       5.8839
L2_BW  =      52.8158 GB/Sec
L2_BW_total  =      52.8158 GB/Sec
gpu_total_sim_rate=1449880

========= Core cache stats =========
L1I_cache:
	L1I_total_cache_accesses = 0
	L1I_total_cache_misses = 0
	L1I_total_cache_pending_hits = 0
	L1I_total_cache_reservation_fails = 0
L1D_cache:
	L1D_cache_core[0]: Access = 544, Miss = 456, Miss_rate = 0.838, Pending_hits = 70, Reservation_fails = 132
	L1D_cache_core[1]: Access = 544, Miss = 456, Miss_rate = 0.838, Pending_hits = 70, Reservation_fails = 145
	L1D_cache_core[2]: Access = 544, Miss = 456, Miss_rate = 0.838, Pending_hits = 70, Reservation_fails = 130
	L1D_cache_core[3]: Access = 528, Miss = 456, Miss_rate = 0.864, Pending_hits = 70, Reservation_fails = 132
	L1D_cache_core[4]: Access = 528, Miss = 456, Miss_rate = 0.864, Pending_hits = 70, Reservation_fails = 132
	L1D_cache_core[5]: Access = 528, Miss = 456, Miss_rate = 0.864, Pending_hits = 70, Reservation_fails = 146
	L1D_cache_core[6]: Access = 528, Miss = 456, Miss_rate = 0.864, Pending_hits = 70, Reservation_fails = 132
	L1D_cache_core[7]: Access = 544, Miss = 456, Miss_rate = 0.838, Pending_hits = 70, Reservation_fails = 132
	L1D_cache_core[8]: Access = 528, Miss = 456, Miss_rate = 0.864, Pending_hits = 56, Reservation_fails = 132
	L1D_cache_core[9]: Access = 528, Miss = 456, Miss_rate = 0.864, Pending_hits = 56, Reservation_fails = 131
	L1D_cache_core[10]: Access = 544, Miss = 456, Miss_rate = 0.838, Pending_hits = 70, Reservation_fails = 132
	L1D_cache_core[11]: Access = 528, Miss = 456, Miss_rate = 0.864, Pending_hits = 70, Reservation_fails = 132
	L1D_cache_core[12]: Access = 528, Miss = 456, Miss_rate = 0.864, Pending_hits = 70, Reservation_fails = 132
	L1D_cache_core[13]: Access = 528, Miss = 456, Miss_rate = 0.864, Pending_hits = 70, Reservation_fails = 164
	L1D_cache_core[14]: Access = 528, Miss = 456, Miss_rate = 0.864, Pending_hits = 70, Reservation_fails = 132
	L1D_cache_core[15]: Access = 544, Miss = 456, Miss_rate = 0.838, Pending_hits = 70, Reservation_fails = 145
	L1D_cache_core[16]: Access = 544, Miss = 456, Miss_rate = 0.838, Pending_hits = 70, Reservation_fails = 130
	L1D_cache_core[17]: Access = 544, Miss = 456, Miss_rate = 0.838, Pending_hits = 70, Reservation_fails = 132
	L1D_cache_core[18]: Access = 256, Miss = 228, Miss_rate = 0.891, Pending_hits = 28, Reservation_fails = 67
	L1D_cache_core[19]: Access = 256, Miss = 228, Miss_rate = 0.891, Pending_hits = 28, Reservation_fails = 67
	L1D_cache_core[20]: Access = 256, Miss = 228, Miss_rate = 0.891, Pending_hits = 28, Reservation_fails = 67
	L1D_cache_core[21]: Access = 256, Miss = 228, Miss_rate = 0.891, Pending_hits = 28, Reservation_fails = 67
	L1D_cache_core[22]: Access = 256, Miss = 228, Miss_rate = 0.891, Pending_hits = 28, Reservation_fails = 67
	L1D_cache_core[23]: Access = 272, Miss = 228, Miss_rate = 0.838, Pending_hits = 28, Reservation_fails = 65
	L1D_cache_core[24]: Access = 272, Miss = 228, Miss_rate = 0.838, Pending_hits = 28, Reservation_fails = 65
	L1D_cache_core[25]: Access = 256, Miss = 228, Miss_rate = 0.891, Pending_hits = 28, Reservation_fails = 67
	L1D_cache_core[26]: Access = 256, Miss = 228, Miss_rate = 0.891, Pending_hits = 28, Reservation_fails = 67
	L1D_cache_core[27]: Access = 256, Miss = 228, Miss_rate = 0.891, Pending_hits = 28, Reservation_fails = 67
	L1D_cache_core[28]: Access = 256, Miss = 228, Miss_rate = 0.891, Pending_hits = 28, Reservation_fails = 67
	L1D_cache_core[29]: Access = 256, Miss = 228, Miss_rate = 0.891, Pending_hits = 28, Reservation_fails = 67
	L1D_cache_core[30]: Access = 256, Miss = 228, Miss_rate = 0.891, Pending_hits = 28, Reservation_fails = 67
	L1D_cache_core[31]: Access = 272, Miss = 228, Miss_rate = 0.838, Pending_hits = 28, Reservation_fails = 65
	L1D_cache_core[32]: Access = 272, Miss = 228, Miss_rate = 0.838, Pending_hits = 28, Reservation_fails = 65
	L1D_cache_core[33]: Access = 256, Miss = 228, Miss_rate = 0.891, Pending_hits = 28, Reservation_fails = 67
	L1D_cache_core[34]: Access = 256, Miss = 228, Miss_rate = 0.891, Pending_hits = 28, Reservation_fails = 67
	L1D_cache_core[35]: Access = 256, Miss = 228, Miss_rate = 0.891, Pending_hits = 28, Reservation_fails = 67
	L1D_cache_core[36]: Access = 256, Miss = 228, Miss_rate = 0.891, Pending_hits = 28, Reservation_fails = 67
	L1D_cache_core[37]: Access = 256, Miss = 228, Miss_rate = 0.891, Pending_hits = 28, Reservation_fails = 67
	L1D_cache_core[38]: Access = 256, Miss = 228, Miss_rate = 0.891, Pending_hits = 28, Reservation_fails = 67
	L1D_cache_core[39]: Access = 272, Miss = 228, Miss_rate = 0.838, Pending_hits = 28, Reservation_fails = 65
	L1D_cache_core[40]: Access = 272, Miss = 228, Miss_rate = 0.838, Pending_hits = 28, Reservation_fails = 65
	L1D_cache_core[41]: Access = 256, Miss = 228, Miss_rate = 0.891, Pending_hits = 28, Reservation_fails = 67
	L1D_cache_core[42]: Access = 256, Miss = 228, Miss_rate = 0.891, Pending_hits = 28, Reservation_fails = 67
	L1D_cache_core[43]: Access = 256, Miss = 228, Miss_rate = 0.891, Pending_hits = 28, Reservation_fails = 67
	L1D_cache_core[44]: Access = 256, Miss = 228, Miss_rate = 0.891, Pending_hits = 28, Reservation_fails = 67
	L1D_cache_core[45]: Access = 256, Miss = 228, Miss_rate = 0.891, Pending_hits = 28, Reservation_fails = 67
	L1D_total_cache_accesses = 16896
	L1D_total_cache_misses = 14592
	L1D_total_cache_miss_rate = 0.8636
	L1D_total_cache_pending_hits = 2016
	L1D_total_cache_reservation_fails = 4307
	L1D_cache_data_port_util = 0.002
	L1D_cache_fill_port_util = 0.024
L1C_cache:
	L1C_total_cache_accesses = 0
	L1C_total_cache_misses = 0
	L1C_total_cache_pending_hits = 0
	L1C_total_cache_reservation_fails = 0
L1T_cache:
	L1T_total_cache_accesses = 0
	L1T_total_cache_misses = 0
	L1T_total_cache_pending_hits = 0
	L1T_total_cache_reservation_fails = 0

Total_core_cache_stats:
	Total_core_cache_stats_breakdown[GLOBAL_ACC_R][HIT] = 288
	Total_core_cache_stats_breakdown[GLOBAL_ACC_R][HIT_RESERVED] = 2016
	Total_core_cache_stats_breakdown[GLOBAL_ACC_R][MISS] = 2176
	Total_core_cache_stats_breakdown[GLOBAL_ACC_R][RESERVATION_FAIL] = 103
	Total_core_cache_stats_breakdown[GLOBAL_ACC_R][SECTOR_MISS] = 2176
	Total_core_cache_stats_breakdown[GLOBAL_ACC_R][MSHR_HIT] = 2016
	Total_core_cache_stats_breakdown[LOCAL_ACC_R][HIT] = 0
	Total_core_cache_stats_breakdown[LOCAL_ACC_R][HIT_RESERVED] = 0
	Total_core_cache_stats_breakdown[LOCAL_ACC_R][MISS] = 0
	Total_core_cache_stats_breakdown[LOCAL_ACC_R][RESERVATION_FAIL] = 0
	Total_core_cache_stats_breakdown[LOCAL_ACC_R][SECTOR_MISS] = 0
	Total_core_cache_stats_breakdown[LOCAL_ACC_R][MSHR_HIT] = 0
	Total_core_cache_stats_breakdown[CONST_ACC_R][HIT] = 0
	Total_core_cache_stats_breakdown[CONST_ACC_R][HIT_RESERVED] = 0
	Total_core_cache_stats_breakdown[CONST_ACC_R][MISS] = 0
	Total_core_cache_stats_breakdown[CONST_ACC_R][RESERVATION_FAIL] = 0
	Total_core_cache_stats_breakdown[CONST_ACC_R][SECTOR_MISS] = 0
	Total_core_cache_stats_breakdown[CONST_ACC_R][MSHR_HIT] = 0
	Total_core_cache_stats_breakdown[TEXTURE_ACC_R][HIT] = 0
	Total_core_cache_stats_breakdown[TEXTURE_ACC_R][HIT_RESERVED] = 0
	Total_core_cache_stats_breakdown[TEXTURE_ACC_R][MISS] = 0
	Total_core_cache_stats_breakdown[TEXTURE_ACC_R][RESERVATION_FAIL] = 0
	Total_core_cache_stats_breakdown[TEXTURE_ACC_R][SECTOR_MISS] = 0
	Total_core_cache_stats_breakdown[TEXTURE_ACC_R][MSHR_HIT] = 0
	Total_core_cache_stats_breakdown[GLOBAL_ACC_W][HIT] = 0
	Total_core_cache_stats_breakdown[GLOBAL_ACC_W][HIT_RESERVED] = 0
	Total_core_cache_stats_breakdown[GLOBAL_ACC_W][MISS] = 5120
	Total_core_cache_stats_breakdown[GLOBAL_ACC_W][RESERVATION_FAIL] = 4204
	Total_core_cache_stats_breakdown[GLOBAL_ACC_W][SECTOR_MISS] = 5120
	Total_core_cache_stats_breakdown[GLOBAL_ACC_W][MSHR_HIT] = 0
	Total_core_cache_stats_breakdown[LOCAL_ACC_W][HIT] = 0
	Total_core_cache_stats_breakdown[LOCAL_ACC_W][HIT_RESERVED] = 0
	Total_core_cache_stats_breakdown[LOCAL_ACC_W][MISS] = 0
	Total_core_cache_stats_breakdown[LOCAL_ACC_W][RESERVATION_FAIL] = 0
	Total_core_cache_stats_breakdown[LOCAL_ACC_W][SECTOR_MISS] = 0
	Total_core_cache_stats_breakdown[LOCAL_ACC_W][MSHR_HIT] = 0
	Total_core_cache_stats_breakdown[L1_WRBK_ACC][HIT] = 0
	Total_core_cache_stats_breakdown[L1_WRBK_ACC][HIT_RESERVED] = 0
	Total_core_cache_stats_breakdown[L1_WRBK_ACC][MISS] = 0
	Total_core_cache_stats_breakdown[L1_WRBK_ACC][RESERVATION_FAIL] = 0
	Total_core_cache_stats_breakdown[L1_WRBK_ACC][SECTOR_MISS] = 0
	Total_core_cache_stats_breakdown[L1_WRBK_ACC][MSHR_HIT] = 0
	Total_core_cache_stats_breakdown[L2_WRBK_ACC][HIT] = 0
	Total_core_cache_stats_breakdown[L2_WRBK_ACC][HIT_RESERVED] = 0
	Total_core_cache_stats_breakdown[L2_WRBK_ACC][MISS] = 0
	Total_core_cache_stats_breakdown[L2_WRBK_ACC][RESERVATION_FAIL] = 0
	Total_core_cache_stats_breakdown[L2_WRBK_ACC][SECTOR_MISS] = 0
	Total_core_cache_stats_breakdown[L2_WRBK_ACC][MSHR_HIT] = 0
	Total_core_cache_stats_breakdown[INST_ACC_R][HIT] = 0
	Total_core_cache_stats_breakdown[INST_ACC_R][HIT_RESERVED] = 0
	Total_core_cache_stats_breakdown[INST_ACC_R][MISS] = 0
	Total_core_cache_stats_breakdown[INST_ACC_R][RESERVATION_FAIL] = 0
	Total_core_cache_stats_breakdown[INST_ACC_R][SECTOR_MISS] = 0
	Total_core_cache_stats_breakdown[INST_ACC_R][MSHR_HIT] = 0
	Total_core_cache_stats_breakdown[L1_WR_ALLOC_R][HIT] = 0
	Total_core_cache_stats_breakdown[L1_WR_ALLOC_R][HIT_RESERVED] = 0
	Total_core_cache_stats_breakdown[L1_WR_ALLOC_R][MISS] = 0
	Total_core_cache_stats_breakdown[L1_WR_ALLOC_R][RESERVATION_FAIL] = 0
	Total_core_cache_stats_breakdown[L1_WR_ALLOC_R][SECTOR_MISS] = 0
	Total_core_cache_stats_breakdown[L1_WR_ALLOC_R][MSHR_HIT] = 0
	Total_core_cache_stats_breakdown[L2_WR_ALLOC_R][HIT] = 0
	Total_core_cache_stats_breakdown[L2_WR_ALLOC_R][HIT_RESERVED] = 0
	Total_core_cache_stats_breakdown[L2_WR_ALLOC_R][MISS] = 0
	Total_core_cache_stats_breakdown[L2_WR_ALLOC_R][RESERVATION_FAIL] = 0
	Total_core_cache_stats_breakdown[L2_WR_ALLOC_R][SECTOR_MISS] = 0
	Total_core_cache_stats_breakdown[L2_WR_ALLOC_R][MSHR_HIT] = 0
	Total_core_cache_stats_breakdown[GLOBAL_ACC_R][TOTAL_ACCESS] = 6656
	Total_core_cache_stats_breakdown[GLOBAL_ACC_W][TOTAL_ACCESS] = 10240

Total_core_cache_fail_stats:
	Total_core_cache_fail_stats_breakdown[GLOBAL_ACC_R][MISS_QUEUE_FULL] = 103
	Total_core_cache_fail_stats_breakdown[GLOBAL_ACC_W][MISS_QUEUE_FULL] = 4204
ctas_completed 64, Shader 0 warp_id issue ditsribution:
warp_id:
0, 1, 2, 3, 4, 5, 6, 7, 8, 9, 10, 11, 12, 13, 14, 15, 
distro:
219, 196, 196, 196, 196, 196, 196, 220, 219, 196, 196, 196, 196, 196, 196, 220, 
gpgpu_n_tot_thrd_icount = 3334144
gpgpu_n_tot_w_icount = 104192
gpgpu_n_stall_shd_mem = 7838
gpgpu_n_mem_read_local = 0
gpgpu_n_mem_write_local = 0
gpgpu_n_mem_read_global = 4352
gpgpu_n_mem_write_global = 10240
gpgpu_n_mem_texture = 0
gpgpu_n_mem_const = 0
gpgpu_n_load_insn  = 90112
gpgpu_n_store_insn = 81920
gpgpu_n_shmem_insn = 204800
gpgpu_n_sstarr_insn = 0
gpgpu_n_tex_insn = 0
gpgpu_n_const_mem_insn = 0
gpgpu_n_param_mem_insn = 0
gpgpu_n_shmem_bkconflict = 1024
gpgpu_n_l1cache_bkconflict = 6814
gpgpu_n_intrawarp_mshr_merge = 0
gpgpu_n_cmem_portconflict = 0
gpgpu_stall_shd_mem[c_mem][resource_stall] = 0
gpgpu_stall_shd_mem[s_mem][bk_conf] = 1024
gpgpu_stall_shd_mem[gl_mem][resource_stall] = 6814
gpgpu_stall_shd_mem[gl_mem][coal_stall] = 0
gpgpu_stall_shd_mem[gl_mem][data_port_stall] = 0
gpu_reg_bank_conflict_stalls = 0
Warp Occupancy Distribution:
Stall:61344	W0_Idle:74001	W0_Scoreboard:501873	W1:3478	W2:4942	W3:210	W4:174	W5:146	W6:78	W7:64	W8:44	W9:24	W10:6	W11:2	W12:4	W13:2	W14:1408	W15:832	W16:0	W17:0	W18:0	W19:1	W20:2	W21:1	W22:3	W23:12	W24:22	W25:32	W26:39	W27:73	W28:855	W29:105	W30:2631	W31:363	W32:85269
single_issue_nums: WS0:26768	WS1:25296	WS2:25296	WS3:26832	
dual_issue_nums: WS0:0	WS1:0	WS2:0	WS3:0	
traffic_breakdown_coretomem[GLOBAL_ACC_R] = 34816 {8:4352,}
traffic_breakdown_coretomem[GLOBAL_ACC_W] = 409600 {40:10240,}
traffic_breakdown_memtocore[GLOBAL_ACC_R] = 174080 {40:4352,}
traffic_breakdown_memtocore[GLOBAL_ACC_W] = 81920 {8:10240,}
maxmflatency = 486 
max_icnt2mem_latency = 183 
maxmrqlatency = 7 
max_icnt2sh_latency = 14 
averagemflatency = 300 
avg_icnt2mem_latency = 80 
avg_mrq_latency = 0 
avg_icnt2sh_latency = 2 
mrq_lat_table:1889 	64 	127 	0 	0 	0 	0 	0 	0 	0 	0 	0 	0 	0 	0 	0 	0 	0 	0 	0 	0 	0 	0 	0 	0 	0 	0 	0 	0 	0 	0 	0 	
dq_lat_table:0 	0 	0 	0 	0 	0 	0 	0 	0 	0 	0 	0 	0 	0 	0 	0 	0 	0 	0 	0 	0 	0 	0 	0 	0 	0 	0 	0 	0 	0 	0 	0 	
mf_lat_table:0 	0 	0 	0 	0 	0 	0 	4226 	10366 	0 	0 	0 	0 	0 	0 	0 	0 	0 	0 	0 	0 	0 	0 	0 	0 	0 	0 	0 	0 	0 	0 	0 	
icnt2mem_lat_table:0 	0 	0 	0 	0 	5876 	7234 	1482 	0 	0 	0 	0 	0 	0 	0 	0 	0 	0 	0 	0 	0 	0 	0 	0 	
icnt2sh_lat_table:0 	14153 	331 	108 	0 	0 	0 	0 	0 	0 	0 	0 	0 	0 	0 	0 	0 	0 	0 	0 	0 	0 	0 	0 	
mf_lat_pw_table:0 	0 	0 	0 	0 	0 	0 	1 	8 	0 	0 	0 	0 	0 	0 	0 	0 	0 	0 	0 	0 	0 	0 	0 	0 	0 	0 	0 	0 	0 	0 	0 	
maximum concurrent accesses to same row:
dram[0]:         0         0         0         0         0         0         0         0         0         0         0         0         0         0         0         0 
dram[1]:         0         0         0         0         0         0         0         0         0         0         0         0         0         0         0         0 
dram[2]:         0         0         0         0         0         0         0         0         0         0         0         0         0         0         0         0 
dram[3]:         0         0         0         0         0         0         0         0         0         0         0         0         0         0         0         0 
dram[4]:         0         0         0         0         0         0         0         0         0         0         0         0         0         0         0         0 
dram[5]:         0         0         0         0         0         0         0         0         0         0         0         0         0         0         0         0 
dram[6]:         0         0         0         0         0         0         0         0         0         0         0         0         0         0         0         0 
dram[7]:         0         0         0         0         0         0         0         0         0         0         0         0         0         0         0         0 
dram[8]:         0         0         0         0         0         0         0         0         0         0         0         0         0         0         0         0 
dram[9]:         0         0         0         0         0         0         0         0         0         0         0         0         0         0         0         0 
dram[10]:         0         0         0         0         0         0         0         0         0         0         0         0         0         0         0         0 
dram[11]:         0         0         0         0         0         0         0         0         0         0         0         0         0         0         0         0 
dram[12]:         0         0         0         0         0         0         0         0         0         0         0         0         0         0         0         0 
dram[13]:         0         0         0         0         0         0         0         0         0         0         0         0         0         0         0         0 
dram[14]:         0         0         0         0         0         0         0         0         0         0         0         0         0         0         0         0 
dram[15]:         0         0         0         0         0         0         0         0         0         0         0         0         0         0         0         0 
maximum service time to same row:
dram[0]:      5999      5488         0      5517         0         0         0         0         0         0         0         0         0         0         0         0 
dram[1]:      5510      5508         0         0         0         0         0         0         0         0         0         0         0         0         0         0 
dram[2]:      5484      5485         0         0         0         0         0         0         0         0         0         0         0         0         0         0 
dram[3]:      5488      5517         0         0         0         0         0         0         0         0         0         0         0         0         0      5506 
dram[4]:      5508      5488         0         0         0         0         0         0         0         0         0         0         0         0         0         0 
dram[5]:      5513      5488         0         0         0         0         0         0         0         0         0         0         0         0         0         0 
dram[6]:      5488      5489         0         0         0         0         0         0         0         0         0         0         0         0         0         0 
dram[7]:      5484      5997      5517         0         0         0         0         0         0         0         0         0         0         0         0         0 
dram[8]:      5997      5484         0      5517         0         0         0         0         0         0         0         0         0         0         0         0 
dram[9]:      5484      5484      5517         0         0         0         0         0         0         0         0         0         0         0         0         0 
dram[10]:      5484      5484         0         0         0         0         0         0         0         0         0         0         0         0         0         0 
dram[11]:      5484      5517         0         0         0         0         0         0         0         0         0         0         0         0         0         0 
dram[12]:      5508      5484         0         0         0         0         0         0         0         0         0         0         0         0         0         0 
dram[13]:      5484      5484         0         0         0         0         0         0         0         0         0         0         0         0         0         0 
dram[14]:      5488      5506         0         0         0         0         0         0         0         0         0         0         0         0         0      5506 
dram[15]:      5484      5488         0         0         0         0         0         0         0         0         0         0         0         0      5506         0 
average row accesses per activate:
dram[0]: 60.000000 64.000000      -nan  4.000000      -nan      -nan      -nan      -nan      -nan      -nan      -nan      -nan      -nan      -nan      -nan      -nan 
dram[1]: 68.000000 56.000000      -nan      -nan      -nan      -nan      -nan      -nan      -nan      -nan      -nan      -nan      -nan      -nan      -nan      -nan 
dram[2]: 84.000000 56.000000      -nan      -nan      -nan      -nan      -nan      -nan      -nan      -nan      -nan      -nan      -nan      -nan      -nan      -nan 
dram[3]: 68.000000 56.000000      -nan      -nan      -nan      -nan      -nan      -nan      -nan      -nan      -nan      -nan      -nan      -nan      -nan  4.000000 
dram[4]: 68.000000 60.000000      -nan      -nan      -nan      -nan      -nan      -nan      -nan      -nan      -nan      -nan      -nan      -nan      -nan      -nan 
dram[5]: 68.000000 52.000000      -nan      -nan      -nan      -nan      -nan      -nan      -nan      -nan      -nan      -nan      -nan      -nan      -nan      -nan 
dram[6]: 64.000000 56.000000      -nan      -nan      -nan      -nan      -nan      -nan      -nan      -nan      -nan      -nan      -nan      -nan      -nan      -nan 
dram[7]: 56.000000 68.000000  4.000000      -nan      -nan      -nan      -nan      -nan      -nan      -nan      -nan      -nan      -nan      -nan      -nan      -nan 
dram[8]: 60.000000 76.000000      -nan  4.000000      -nan      -nan      -nan      -nan      -nan      -nan      -nan      -nan      -nan      -nan      -nan      -nan 
dram[9]: 56.000000 52.000000  4.000000      -nan      -nan      -nan      -nan      -nan      -nan      -nan      -nan      -nan      -nan      -nan      -nan      -nan 
dram[10]: 84.000000 72.000000      -nan      -nan      -nan      -nan      -nan      -nan      -nan      -nan      -nan      -nan      -nan      -nan      -nan      -nan 
dram[11]: 64.000000 68.000000      -nan      -nan      -nan      -nan      -nan      -nan      -nan      -nan      -nan      -nan      -nan      -nan      -nan      -nan 
dram[12]: 48.000000 88.000000      -nan      -nan      -nan      -nan      -nan      -nan      -nan      -nan      -nan      -nan      -nan      -nan      -nan      -nan 
dram[13]: 60.000000 72.000000      -nan      -nan      -nan      -nan      -nan      -nan      -nan      -nan      -nan      -nan      -nan      -nan      -nan      -nan 
dram[14]: 44.000000 76.000000      -nan      -nan      -nan      -nan      -nan      -nan      -nan      -nan      -nan      -nan      -nan      -nan      -nan  4.000000 
dram[15]: 72.000000 52.000000      -nan      -nan      -nan      -nan      -nan      -nan      -nan      -nan      -nan      -nan      -nan      -nan  8.000000      -nan 
average row locality = 2080/39 = 53.333332
number of bytes read:
dram[0]:      1920      2048         0       128         0         0         0         0         0         0         0         0         0         0         0         0 
dram[1]:      2176      1792         0         0         0         0         0         0         0         0         0         0         0         0         0         0 
dram[2]:      2688      1792         0         0         0         0         0         0         0         0         0         0         0         0         0         0 
dram[3]:      2176      1792         0         0         0         0         0         0         0         0         0         0         0         0         0       128 
dram[4]:      2176      1920         0         0         0         0         0         0         0         0         0         0         0         0         0         0 
dram[5]:      2176      1664         0         0         0         0         0         0         0         0         0         0         0         0         0         0 
dram[6]:      2048      1792         0         0         0         0         0         0         0         0         0         0         0         0         0         0 
dram[7]:      1792      2176       128         0         0         0         0         0         0         0         0         0         0         0         0         0 
dram[8]:      1920      2432         0       128         0         0         0         0         0         0         0         0         0         0         0         0 
dram[9]:      1792      1664       128         0         0         0         0         0         0         0         0         0         0         0         0         0 
dram[10]:      2688      2304         0         0         0         0         0         0         0         0         0         0         0         0         0         0 
dram[11]:      2048      2176         0         0         0         0         0         0         0         0         0         0         0         0         0         0 
dram[12]:      1536      2816         0         0         0         0         0         0         0         0         0         0         0         0         0         0 
dram[13]:      1920      2304         0         0         0         0         0         0         0         0         0         0         0         0         0         0 
dram[14]:      1408      2432         0         0         0         0         0         0         0         0         0         0         0         0         0       128 
dram[15]:      2304      1664         0         0         0         0         0         0         0         0         0         0         0         0       256         0 
total bytes read: 66560
Bmin_bank_accesses = 0!
chip skew: 4992/3584 = 1.39
number of bytes accessed:
dram[0]:      1920      2048         0       128         0         0         0         0         0         0         0         0         0         0         0         0 
dram[1]:      2176      1792         0         0         0         0         0         0         0         0         0         0         0         0         0         0 
dram[2]:      2688      1792         0         0         0         0         0         0         0         0         0         0         0         0         0         0 
dram[3]:      2176      1792         0         0         0         0         0         0         0         0         0         0         0         0         0       128 
dram[4]:      2176      1920         0         0         0         0         0         0         0         0         0         0         0         0         0         0 
dram[5]:      2176      1664         0         0         0         0         0         0         0         0         0         0         0         0         0         0 
dram[6]:      2048      1792         0         0         0         0         0         0         0         0         0         0         0         0         0         0 
dram[7]:      1792      2176       128         0         0         0         0         0         0         0         0         0         0         0         0         0 
dram[8]:      1920      2432         0       128         0         0         0         0         0         0         0         0         0         0         0         0 
dram[9]:      1792      1664       128         0         0         0         0         0         0         0         0         0         0         0         0         0 
dram[10]:      2688      2304         0         0         0         0         0         0         0         0         0         0         0         0         0         0 
dram[11]:      2048      2176         0         0         0         0         0         0         0         0         0         0         0         0         0         0 
dram[12]:      1536      2816         0         0         0         0         0         0         0         0         0         0         0         0         0         0 
dram[13]:      1920      2304         0         0         0         0         0         0         0         0         0         0         0         0         0         0 
dram[14]:      1408      2432         0         0         0         0         0         0         0         0         0         0         0         0         0       128 
dram[15]:      2304      1664         0         0         0         0         0         0         0         0         0         0         0         0       256         0 
total dram bytes accesed = 66560
min_bank_accesses = 0!
chip skew: 4992/3584 = 1.39
number of bytes written:
dram[0]:         0         0         0         0         0         0         0         0         0         0         0         0         0         0         0         0 
dram[1]:         0         0         0         0         0         0         0         0         0         0         0         0         0         0         0         0 
dram[2]:         0         0         0         0         0         0         0         0         0         0         0         0         0         0         0         0 
dram[3]:         0         0         0         0         0         0         0         0         0         0         0         0         0         0         0         0 
dram[4]:         0         0         0         0         0         0         0         0         0         0         0         0         0         0         0         0 
dram[5]:         0         0         0         0         0         0         0         0         0         0         0         0         0         0         0         0 
dram[6]:         0         0         0         0         0         0         0         0         0         0         0         0         0         0         0         0 
dram[7]:         0         0         0         0         0         0         0         0         0         0         0         0         0         0         0         0 
dram[8]:         0         0         0         0         0         0         0         0         0         0         0         0         0         0         0         0 
dram[9]:         0         0         0         0         0         0         0         0         0         0         0         0         0         0         0         0 
dram[10]:         0         0         0         0         0         0         0         0         0         0         0         0         0         0         0         0 
dram[11]:         0         0         0         0         0         0         0         0         0         0         0         0         0         0         0         0 
dram[12]:         0         0         0         0         0         0         0         0         0         0         0         0         0         0         0         0 
dram[13]:         0         0         0         0         0         0         0         0         0         0         0         0         0         0         0         0 
dram[14]:         0         0         0         0         0         0         0         0         0         0         0         0         0         0         0         0 
dram[15]:         0         0         0         0         0         0         0         0         0         0         0         0         0         0         0         0 
total dram writes = 0
min_bank_accesses = 0!
min_chip_accesses = 0!
average mf latency per bank:
dram[0]:         21        22    none         125    none      none      none      none      none      none      none      none      none      none      none      none  
dram[1]:         21        23    none      none      none      none      none      none      none      none      none      none      none      none      none      none  
dram[2]:         22        21    none      none      none      none      none      none      none      none      none      none      none      none      none      none  
dram[3]:         23        22    none      none      none      none      none      none      none      none      none      none      none      none      none          15
dram[4]:         21        22    none      none      none      none      none      none      none      none      none      none      none      none      none      none  
dram[5]:         21        23    none      none      none      none      none      none      none      none      none      none      none      none      none      none  
dram[6]:         22        22    none      none      none      none      none      none      none      none      none      none      none      none      none      none  
dram[7]:         22        21       125    none      none      none      none      none      none      none      none      none      none      none      none      none  
dram[8]:         21        21    none         118    none      none      none      none      none      none      none      none      none      none      none      none  
dram[9]:         22        21       202    none      none      none      none      none      none      none      none      none      none      none      none      none  
dram[10]:         22        22    none      none      none      none      none      none      none      none      none      none      none      none      none      none  
dram[11]:         22        21    none      none      none      none      none      none      none      none      none      none      none      none      none      none  
dram[12]:         22        22    none      none      none      none      none      none      none      none      none      none      none      none      none      none  
dram[13]:         22        23    none      none      none      none      none      none      none      none      none      none      none      none      none      none  
dram[14]:         22        21    none      none      none      none      none      none      none      none      none      none      none      none      none          13
dram[15]:         22        23    none      none      none      none      none      none      none      none      none      none      none      none          13    none  
maximum mf latency per bank:
dram[0]:        472       461       374       442       366       352       373       358       372       357       366       352         0         0         0         0
dram[1]:        470       472       364       349       349       343       370       351       365       357       371       353         0         0         0         0
dram[2]:        480       458       371       345       349       352       362       359       370       347       374       359         0         0         0         0
dram[3]:        472       472       360       348       364       359       370       360       365       351       370       361         0         0         0       441
dram[4]:        470       473       334       345       364       354       370       363       366       352       368       361         0         0         0         0
dram[5]:        465       466       360       349       360       351       369       351       370       359       366       359         0         0         0         0
dram[6]:        470       471       365       351       339       360       362       358       365       357       371       359         0         0         0         0
dram[7]:        482       472       439       351       361       351       362       352       372       355       319       355         0         0         0         0
dram[8]:        480       470       366       440       366       341       361       361       363       351       373       361         0         0         0         0
dram[9]:        482       469       440       351       356       347       371       353       370       354       370       359         0         0         0         0
dram[10]:        483       486       345       351       364       351       365       361       365       357       372       358         0         0         0         0
dram[11]:        459       480       317       339       361       349       371       358       370       359       370       353         0         0         0         0
dram[12]:        482       482       365       351       364       359       370       358       372       346       369       361         0         0         0         0
dram[13]:        468       472       365       349       364       360       367       355       365       358       369       357         0         0         0         0
dram[14]:        469       482       374       351       365       351       366       361       370       359       370       357         0         0         0       449
dram[15]:        461       470       366       351       361       351       360       359       366       358       373       349         0         0       444         0
Memory Partition 0: 
Cache L2_bank_000:
MSHR contents

Cache L2_bank_001:
MSHR contents

In Dram Latency Queue (total = 0): 
DRAM[0]: 16 bks, busW=16 BL=2 CL=22, tRRD=7 tCCD=1, tRCD=22 tRAS=50 tRP=22 tRC=72
n_cmd=44312 n_nop=44181 n_act=3 n_pre=0 n_ref_event=0 n_req=128 n_rd=128 n_rd_L2_A=0 n_write=0 n_wr_bk=0 bw_util=0.002889
n_activity=1158 dram_eff=0.1105
bk0: 60a 44275i bk1: 64a 44259i bk2: 0a 44312i bk3: 4a 44280i bk4: 0a 44312i bk5: 0a 44312i bk6: 0a 44312i bk7: 0a 44312i bk8: 0a 44312i bk9: 0a 44312i bk10: 0a 44312i bk11: 0a 44312i bk12: 0a 44312i bk13: 0a 44312i bk14: 0a 44312i bk15: 0a 44312i 

------------------------------------------------------------------------

Row_Buffer_Locality = 0.976562
Row_Buffer_Locality_read = 0.976562
Row_Buffer_Locality_write = -nan
Bank_Level_Parallism = 1.024590
Bank_Level_Parallism_Col = 1.024896
Bank_Level_Parallism_Ready = 1.007812
write_to_read_ratio_blp_rw_average = 0.000000
GrpLevelPara = 1.024896 

BW Util details:
bwutil = 0.002889 
total_CMD = 44312 
util_bw = 128 
Wasted_Col = 116 
Wasted_Row = 0 
Idle = 44068 

BW Util Bottlenecks: 
RCDc_limit = 64 
RCDWRc_limit = 0 
WTRc_limit = 0 
RTWc_limit = 0 
CCDLc_limit = 52 
rwq = 0 
CCDLc_limit_alone = 52 
WTRc_limit_alone = 0 
RTWc_limit_alone = 0 

Commands details: 
total_CMD = 44312 
n_nop = 44181 
Read = 128 
Write = 0 
L2_Alloc = 0 
L2_WB = 0 
n_act = 3 
n_pre = 0 
n_ref = 0 
n_req = 128 
total_req = 128 

Dual Bus Interface Util: 
issued_total_row = 3 
issued_total_col = 128 
Row_Bus_Util =  0.000068 
CoL_Bus_Util = 0.002889 
Either_Row_CoL_Bus_Util = 0.002956 
Issued_on_Two_Bus_Simul_Util = 0.000000 
issued_two_Eff = 0.000000 
queue_avg = 0.006229 


dram_util_bins: 0 0 0 0 0 0 0 0 0 0
dram_eff_bins: 0 0 0 0 0 0 0 0 0 0
mrqq: max=7 avg=0.00622856
Memory Partition 1: 
Cache L2_bank_002:
MSHR contents

Cache L2_bank_003:
MSHR contents

In Dram Latency Queue (total = 0): 
DRAM[1]: 16 bks, busW=16 BL=2 CL=22, tRRD=7 tCCD=1, tRCD=22 tRAS=50 tRP=22 tRC=72
n_cmd=44312 n_nop=44186 n_act=2 n_pre=0 n_ref_event=0 n_req=124 n_rd=124 n_rd_L2_A=0 n_write=0 n_wr_bk=0 bw_util=0.002798
n_activity=1093 dram_eff=0.1134
bk0: 68a 44269i bk1: 56a 44238i bk2: 0a 44312i bk3: 0a 44312i bk4: 0a 44312i bk5: 0a 44312i bk6: 0a 44312i bk7: 0a 44312i bk8: 0a 44312i bk9: 0a 44312i bk10: 0a 44312i bk11: 0a 44312i bk12: 0a 44312i bk13: 0a 44312i bk14: 0a 44312i bk15: 0a 44312i 

------------------------------------------------------------------------

Row_Buffer_Locality = 0.983871
Row_Buffer_Locality_read = 0.983871
Row_Buffer_Locality_write = -nan
Bank_Level_Parallism = 1.142180
Bank_Level_Parallism_Col = 1.138095
Bank_Level_Parallism_Ready = 1.008065
write_to_read_ratio_blp_rw_average = 0.000000
GrpLevelPara = 1.138095 

BW Util details:
bwutil = 0.002798 
total_CMD = 44312 
util_bw = 124 
Wasted_Col = 87 
Wasted_Row = 0 
Idle = 44101 

BW Util Bottlenecks: 
RCDc_limit = 41 
RCDWRc_limit = 0 
WTRc_limit = 0 
RTWc_limit = 0 
CCDLc_limit = 67 
rwq = 0 
CCDLc_limit_alone = 67 
WTRc_limit_alone = 0 
RTWc_limit_alone = 0 

Commands details: 
total_CMD = 44312 
n_nop = 44186 
Read = 124 
Write = 0 
L2_Alloc = 0 
L2_WB = 0 
n_act = 2 
n_pre = 0 
n_ref = 0 
n_req = 124 
total_req = 124 

Dual Bus Interface Util: 
issued_total_row = 2 
issued_total_col = 124 
Row_Bus_Util =  0.000045 
CoL_Bus_Util = 0.002798 
Either_Row_CoL_Bus_Util = 0.002843 
[...]
mrqq: max=8 avg=0.0026959
Memory Partition 6: 
Cache L2_bank_012:
MSHR contents

Cache L2_bank_013:
MSHR contents

In Dram Latency Queue (total = 0): 
DRAM[6]: 16 bks, busW=16 BL=2 CL=22, tRRD=7 tCCD=1, tRCD=22 tRAS=50 tRP=22 tRC=72
n_cmd=157647 n_nop=157395 n_act=4 n_pre=0 n_ref_event=0 n_req=248 n_rd=248 n_rd_L2_A=0 n_write=0 n_wr_bk=0 bw_util=0.001573
n_activity=1964 dram_eff=0.1263
bk0: 64a 157592i bk1: 56a 157586i bk2: 0a 157647i bk3: 0a 157647i bk4: 0a 157647i bk5: 0a 157647i bk6: 0a 157647i bk7: 0a 157647i bk8: 0a 157647i bk9: 0a 157647i bk10: 0a 157647i bk11: 0a 157647i bk12: 60a 157585i bk13: 68a 157578i bk14: 0a 157647i bk15: 0a 157647i 

------------------------------------------------------------------------

Row_Buffer_Locality = 0.983871
Row_Buffer_Locality_read = 0.983871
Row_Buffer_Locality_write = -nan
Bank_Level_Parallism = 1.092715
Bank_Level_Parallism_Col = 1.086667
Bank_Level_Parallism_Ready = 1.024194
write_to_read_ratio_blp_rw_average = 0.000000
GrpLevelPara = 1.086667 

BW Util details:
bwutil = 0.001573 
total_CMD = 157647 
util_bw = 248 
Wasted_Col = 205 
Wasted_Row = 0 
Idle = 157194 

BW Util Bottlenecks: 
RCDc_limit = 86 
RCDWRc_limit = 0 
WTRc_limit = 0 
RTWc_limit = 0 
CCDLc_limit = 141 
rwq = 0 
CCDLc_limit_alone = 141 
WTRc_limit_alone = 0 
RTWc_limit_alone = 0 

Commands details: 
total_CMD = 157647 
n_nop = 157395 
Read = 248 
Write = 0 
L2_Alloc = 0 
L2_WB = 0 
n_act = 4 
n_pre = 0 
n_ref = 0 
n_req = 248 
total_req = 248 

Dual Bus Interface Util: 
issued_total_row = 4 
issued_total_col = 248 
Row_Bus_Util =  0.000025 
CoL_Bus_Util = 0.001573 
Either_Row_CoL_Bus_Util = 0.001599 
Issued_on_Two_Bus_Simul_Util = 0.000000 
issued_two_Eff = 0.000000 
queue_avg = 0.001326 


dram_util_bins: 0 0 0 0 0 0 0 0 0 0
dram_eff_bins: 0 0 0 0 0 0 0 0 0 0
mrqq: max=4 avg=0.00132575
Memory Partition 7: 
Cache L2_bank_014:
MSHR contents

Cache L2_bank_015:
MSHR contents

In Dram Latency Queue (total = 0): 
DRAM[7]: 16 bks, busW=16 BL=2 CL=22, tRRD=7 tCCD=1, tRCD=22 tRAS=50 tRP=22 tRC=72
n_cmd=157647 n_nop=157394 n_act=5 n_pre=0 n_ref_event=0 n_req=248 n_rd=248 n_rd_L2_A=0 n_write=0 n_wr_bk=0 bw_util=0.001573
n_activity=1998 dram_eff=0.1241
bk0: 56a 157609i bk1: 68a 157513i bk2: 4a 157616i bk3: 0a 157647i bk4: 0a 157647i bk5: 0a 157647i bk6: 0a 157647i bk7: 0a 157647i bk8: 0a 157647i bk9: 0a 157647i bk10: 0a 157647i bk11: 0a 157647i bk12: 64a 157595i bk13: 56a 157595i bk14: 0a 157647i bk15: 0a 157647i 

------------------------------------------------------------------------

Row_Buffer_Locality = 0.979839
Row_Buffer_Locality_read = 0.979839
Row_Buffer_Locality_write = -nan
Bank_Level_Parallism = 1.041276
Bank_Level_Parallism_Col = 1.041667
Bank_Level_Parallism_Ready = 1.020161
write_to_read_ratio_blp_rw_average = 0.000000
GrpLevelPara = 1.041667 

BW Util details:
bwutil = 0.001573 
total_CMD = 157647 
util_bw = 248 
Wasted_Col = 285 
Wasted_Row = 0 
Idle = 157114 

BW Util Bottlenecks: 
RCDc_limit = 108 
RCDWRc_limit = 0 
WTRc_limit = 0 
RTWc_limit = 0 
CCDLc_limit = 182 
rwq = 0 
CCDLc_limit_alone = 182 
WTRc_limit_alone = 0 
RTWc_limit_alone = 0 

Commands details: 
total_CMD = 157647 
n_nop = 157394 
Read = 248 
Write = 0 
L2_Alloc = 0 
L2_WB = 0 
n_act = 5 
n_pre = 0 
n_ref = 0 
n_req = 248 
total_req = 248 

Dual Bus Interface Util: 
issued_total_row = 5 
issued_total_col = 248 
Row_Bus_Util =  0.000032 
CoL_Bus_Util = 0.001573 
Either_Row_CoL_Bus_Util = 0.001605 
Issued_on_Two_Bus_Simul_Util = 0.000000 
issued_two_Eff = 0.000000 
queue_avg = 0.004478 


dram_util_bins: 0 0 0 0 0 0 0 0 0 0
dram_eff_bins: 0 0 0 0 0 0 0 0 0 0
mrqq: max=5 avg=0.00447836
Memory Partition 8: 
Cache L2_bank_016:
MSHR contents

Cache L2_bank_017:
MSHR contents

In Dram Latency Queue (total = 0): 
DRAM[8]: 16 bks, busW=16 BL=2 CL=22, tRRD=7 tCCD=1, tRCD=22 tRAS=50 tRP=22 tRC=72
n_cmd=157647 n_nop=157366 n_act=5 n_pre=0 n_ref_event=0 n_req=276 n_rd=276 n_rd_L2_A=0 n_write=0 n_wr_bk=0 bw_util=0.001751
n_activity=2009 dram_eff=0.1374
bk0: 60a 157560i bk1: 76a 157593i bk2: 0a 157647i bk3: 4a 157622i bk4: 0a 157647i bk5: 0a 157647i bk6: 0a 157647i bk7: 0a 157647i bk8: 0a 157647i bk9: 0a 157647i bk10: 0a 157647i bk11: 0a 157647i bk12: 60a 157566i bk13: 76a 157571i bk14: 0a 157647i bk15: 0a 157647i 

------------------------------------------------------------------------

Row_Buffer_Locality = 0.981884
Row_Buffer_Locality_read = 0.981884
Row_Buffer_Locality_write = -nan
Bank_Level_Parallism = 1.067736
Bank_Level_Parallism_Col = 1.068345
Bank_Level_Parallism_Ready = 1.018116
write_to_read_ratio_blp_rw_average = 0.000000
GrpLevelPara = 1.068345 

BW Util details:
bwutil = 0.001751 
total_CMD = 157647 
util_bw = 276 
Wasted_Col = 285 
Wasted_Row = 0 
Idle = 157086 

BW Util Bottlenecks: 
RCDc_limit = 104 
RCDWRc_limit = 0 
WTRc_limit = 0 
RTWc_limit = 0 
CCDLc_limit = 188 
rwq = 0 
CCDLc_limit_alone = 188 
WTRc_limit_alone = 0 
RTWc_limit_alone = 0 

Commands details: 
total_CMD = 157647 
n_nop = 157366 
Read = 276 
Write = 0 
L2_Alloc = 0 
L2_WB = 0 
n_act = 5 
n_pre = 0 
n_ref = 0 
n_req = 276 
total_req = 276 

Dual Bus Interface Util: 
issued_total_row = 5 
issued_total_col = 276 
Row_Bus_Util =  0.000032 
CoL_Bus_Util = 0.001751 
Either_Row_CoL_Bus_Util = 0.001782 
Issued_on_Two_Bus_Simul_Util = 0.000000 
issued_two_Eff = 0.000000 
queue_avg = 0.002487 


dram_util_bins: 0 0 0 0 0 0 0 0 0 0
dram_eff_bins: 0 0 0 0 0 0 0 0 0 0
mrqq: max=4 avg=0.00248657
Memory Partition 9: 
Cache L2_bank_018:
MSHR contents

Cache L2_bank_019:
MSHR contents

In Dram Latency Queue (total = 0): 
DRAM[9]: 16 bks, busW=16 BL=2 CL=22, tRRD=7 tCCD=1, tRCD=22 tRAS=50 tRP=22 tRC=72
n_cmd=157647 n_nop=157366 n_act=6 n_pre=0 n_ref_event=0 n_req=276 n_rd=276 n_rd_L2_A=0 n_write=0 n_wr_bk=0 bw_util=0.001751
n_activity=2289 dram_eff=0.1206
bk0: 56a 157607i bk1: 52a 157614i bk2: 4a 157622i bk3: 0a 157647i bk4: 0a 157647i bk5: 0a 157647i bk6: 0a 157647i bk7: 0a 157647i bk8: 0a 157647i bk9: 0a 157647i bk10: 0a 157647i bk11: 4a 157616i bk12: 80a 157579i bk13: 80a 157589i bk14: 0a 157647i bk15: 0a 157647i 

------------------------------------------------------------------------

Row_Buffer_Locality = 0.978261
Row_Buffer_Locality_read = 0.978261
Row_Buffer_Locality_write = -nan
Bank_Level_Parallism = 1.127388
Bank_Level_Parallism_Col = 1.111349
Bank_Level_Parallism_Ready = 1.021739
write_to_read_ratio_blp_rw_average = 0.000000
GrpLevelPara = 1.111349 

BW Util details:
bwutil = 0.001751 
total_CMD = 157647 
util_bw = 276 
Wasted_Col = 195 
Wasted_Row = 0 
Idle = 157176 

BW Util Bottlenecks: 
RCDc_limit = 123 
RCDWRc_limit = 0 
WTRc_limit = 0 
RTWc_limit = 0 
CCDLc_limit = 102 
rwq = 0 
CCDLc_limit_alone = 102 
WTRc_limit_alone = 0 
RTWc_limit_alone = 0 

Commands details: 
total_CMD = 157647 
n_nop = 157366 
Read = 276 
Write = 0 
L2_Alloc = 0 
L2_WB = 0 
n_act = 6 
n_pre = 0 
n_ref = 0 
n_req = 276 
total_req = 276 

Dual Bus Interface Util: 
issued_total_row = 6 
issued_total_col = 276 
Row_Bus_Util =  0.000038 
CoL_Bus_Util = 0.001751 
Either_Row_CoL_Bus_Util = 0.001782 
Issued_on_Two_Bus_Simul_Util = 0.000006 
issued_two_Eff = 0.003559 
queue_avg = 0.002366 


dram_util_bins: 0 0 0 0 0 0 0 0 0 0
dram_eff_bins: 0 0 0 0 0 0 0 0 0 0
mrqq: max=6 avg=0.00236605
Memory Partition 10: 
Cache L2_bank_020:
MSHR contents

Cache L2_bank_021:
MSHR contents

In Dram Latency Queue (total = 0): 
DRAM[10]: 16 bks, busW=16 BL=2 CL=22, tRRD=7 tCCD=1, tRCD=22 tRAS=50 tRP=22 tRC=72
n_cmd=157647 n_nop=157343 n_act=4 n_pre=0 n_ref_event=0 n_req=300 n_rd=300 n_rd_L2_A=0 n_write=0 n_wr_bk=0 bw_util=0.001903
n_activity=2173 dram_eff=0.1381
bk0: 84a 157541i bk1: 72a 157604i bk2: 0a 157647i bk3: 0a 157647i bk4: 0a 157647i bk5: 0a 157647i bk6: 0a 157647i bk7: 0a 157647i bk8: 0a 157647i bk9: 0a 157647i bk10: 0a 157647i bk11: 0a 157647i bk12: 96a 157534i bk13: 48a 157608i bk14: 0a 157647i bk15: 0a 157647i 

------------------------------------------------------------------------

Row_Buffer_Locality = 0.986667
Row_Buffer_Locality_read = 0.986667
Row_Buffer_Locality_write = -nan
Bank_Level_Parallism = 1.136106
Bank_Level_Parallism_Col = 1.121442
Bank_Level_Parallism_Ready = 1.003333
write_to_read_ratio_blp_rw_average = 0.000000
GrpLevelPara = 1.121442 

BW Util details:
bwutil = 0.001903 
total_CMD = 157647 
util_bw = 300 
Wasted_Col = 229 
Wasted_Row = 0 
Idle = 157118 

BW Util Bottlenecks: 
RCDc_limit = 81 
RCDWRc_limit = 0 
WTRc_limit = 0 
RTWc_limit = 0 
CCDLc_limit = 192 
rwq = 0 
CCDLc_limit_alone = 192 
WTRc_limit_alone = 0 
RTWc_limit_alone = 0 

Commands details: 
total_CMD = 157647 
n_nop = 157343 
Read = 300 
Write = 0 
L2_Alloc = 0 
L2_WB = 0 
n_act = 4 
n_pre = 0 
n_ref = 0 
n_req = 300 
total_req = 300 

Dual Bus Interface Util: 
issued_total_row = 4 
issued_total_col = 300 
Row_Bus_Util =  0.000025 
CoL_Bus_Util = 0.001903 
Either_Row_CoL_Bus_Util = 0.001928 
Issued_on_Two_Bus_Simul_Util = 0.000000 
issued_two_Eff = 0.000000 
queue_avg = 0.002645 


dram_util_bins: 0 0 0 0 0 0 0 0 0 0
dram_eff_bins: 0 0 0 0 0 0 0 0 0 0
mrqq: max=8 avg=0.00264515
Memory Partition 11: 
Cache L2_bank_022:
MSHR contents

Cache L2_bank_023:
MSHR contents

In Dram Latency Queue (total = 0): 
DRAM[11]: 16 bks, busW=16 BL=2 CL=22, tRRD=7 tCCD=1, tRCD=22 tRAS=50 tRP=22 tRC=72
n_cmd=157647 n_nop=157378 n_act=5 n_pre=0 n_ref_event=0 n_req=264 n_rd=264 n_rd_L2_A=0 n_write=0 n_wr_bk=0 bw_util=0.001675
n_activity=1992 dram_eff=0.1325
bk0: 64a 157567i bk1: 68a 157608i bk2: 0a 157647i bk3: 0a 157647i bk4: 0a 157647i bk5: 0a 157647i bk6: 0a 157647i bk7: 0a 157647i bk8: 0a 157647i bk9: 0a 157647i bk10: 0a 157647i bk11: 4a 157616i bk12: 60a 157595i bk13: 68a 157579i bk14: 0a 157647i bk15: 0a 157647i 

------------------------------------------------------------------------

Row_Buffer_Locality = 0.981061
Row_Buffer_Locality_read = 0.981061
Row_Buffer_Locality_write = -nan
Bank_Level_Parallism = 1.063745
Bank_Level_Parallism_Col = 1.062249
Bank_Level_Parallism_Ready = 1.015152
write_to_read_ratio_blp_rw_average = 0.000000
GrpLevelPara = 1.062249 

BW Util details:
bwutil = 0.001675 
total_CMD = 157647 
util_bw = 264 
Wasted_Col = 238 
Wasted_Row = 0 
Idle = 157145 

BW Util Bottlenecks: 
RCDc_limit = 107 
RCDWRc_limit = 0 
WTRc_limit = 0 
RTWc_limit = 0 
CCDLc_limit = 152 
rwq = 0 
CCDLc_limit_alone = 152 
WTRc_limit_alone = 0 
RTWc_limit_alone = 0 

Commands details: 
total_CMD = 157647 
n_nop = 157378 
Read = 264 
Write = 0 
L2_Alloc = 0 
L2_WB = 0 
n_act = 5 
n_pre = 0 
n_ref = 0 
n_req = 264 
total_req = 264 

Dual Bus Interface Util: 
issued_total_row = 5 
issued_total_col = 264 
Row_Bus_Util =  0.000032 
CoL_Bus_Util = 0.001675 
Either_Row_CoL_Bus_Util = 0.001706 
Issued_on_Two_Bus_Simul_Util = 0.000000 
issued_two_Eff = 0.000000 
queue_avg = 0.002594 


dram_util_bins: 0 0 0 0 0 0 0 0 0 0
dram_eff_bins: 0 0 0 0 0 0 0 0 0 0
mrqq: max=6 avg=0.0025944
Memory Partition 12: 
Cache L2_bank_024:
MSHR contents

Cache L2_bank_025:
MSHR contents

In Dram Latency Queue (total = 0): 
DRAM[12]: 16 bks, busW=16 BL=2 CL=22, tRRD=7 tCCD=1, tRCD=22 tRAS=50 tRP=22 tRC=72
n_cmd=157647 n_nop=157378 n_act=5 n_pre=0 n_ref_event=0 n_req=264 n_rd=264 n_rd_L2_A=0 n_write=0 n_wr_bk=0 bw_util=0.001675
n_activity=2186 dram_eff=0.1208
bk0: 48a 157612i bk1: 88a 157584i bk2: 0a 157647i bk3: 0a 157647i bk4: 0a 157647i bk5: 0a 157647i bk6: 0a 157647i bk7: 0a 157647i bk8: 0a 157647i bk9: 0a 157647i bk10: 0a 157647i bk11: 0a 157647i bk12: 88a 157544i bk13: 36a 157610i bk14: 0a 157647i bk15: 4a 157616i 

------------------------------------------------------------------------

Row_Buffer_Locality = 0.981061
Row_Buffer_Locality_read = 0.981061
Row_Buffer_Locality_write = -nan
Bank_Level_Parallism = 1.019120
Bank_Level_Parallism_Col = 1.019305
Bank_Level_Parallism_Ready = 1.011364
write_to_read_ratio_blp_rw_average = 0.000000
GrpLevelPara = 1.019305 

BW Util details:
bwutil = 0.001675 
total_CMD = 157647 
util_bw = 264 
Wasted_Col = 259 
Wasted_Row = 0 
Idle = 157124 

BW Util Bottlenecks: 
RCDc_limit = 108 
RCDWRc_limit = 0 
WTRc_limit = 0 
RTWc_limit = 0 
CCDLc_limit = 151 
rwq = 0 
CCDLc_limit_alone = 151 
WTRc_limit_alone = 0 
RTWc_limit_alone = 0 

Commands details: 
total_CMD = 157647 
n_nop = 157378 
Read = 264 
Write = 0 
L2_Alloc = 0 
L2_WB = 0 
n_act = 5 
n_pre = 0 
n_ref = 0 
n_req = 264 
total_req = 264 

Dual Bus Interface Util: 
issued_total_row = 5 
issued_total_col = 264 
Row_Bus_Util =  0.000032 
CoL_Bus_Util = 0.001675 
Either_Row_CoL_Bus_Util = 0.001706 
Issued_on_Two_Bus_Simul_Util = 0.000000 
issued_two_Eff = 0.000000 
queue_avg = 0.002081 


dram_util_bins: 0 0 0 0 0 0 0 0 0 0
dram_eff_bins: 0 0 0 0 0 0 0 0 0 0
mrqq: max=4 avg=0.0020806
Memory Partition 13: 
Cache L2_bank_026:
MSHR contents

Cache L2_bank_027:
MSHR contents

In Dram Latency Queue (total = 0): 
DRAM[13]: 16 bks, busW=16 BL=2 CL=22, tRRD=7 tCCD=1, tRCD=22 tRAS=50 tRP=22 tRC=72
n_cmd=157647 n_nop=157387 n_act=4 n_pre=0 n_ref_event=0 n_req=256 n_rd=256 n_rd_L2_A=0 n_write=0 n_wr_bk=0 bw_util=0.001624
n_activity=1634 dram_eff=0.1567
bk0: 60a 157604i bk1: 72a 157558i bk2: 0a 157647i bk3: 0a 157647i bk4: 0a 157647i bk5: 0a 157647i bk6: 0a 157647i bk7: 0a 157647i bk8: 0a 157647i bk9: 0a 157647i bk10: 0a 157647i bk11: 0a 157647i bk12: 72a 157535i bk13: 52a 157571i bk14: 0a 157647i bk15: 0a 157647i 

------------------------------------------------------------------------

Row_Buffer_Locality = 0.984375
Row_Buffer_Locality_read = 0.984375
Row_Buffer_Locality_write = -nan
Bank_Level_Parallism = 1.254902
Bank_Level_Parallism_Col = 1.231948
Bank_Level_Parallism_Ready = 1.015625
write_to_read_ratio_blp_rw_average = 0.000000
GrpLevelPara = 1.231948 

BW Util details:
bwutil = 0.001624 
total_CMD = 157647 
util_bw = 256 
Wasted_Col = 203 
Wasted_Row = 0 
Idle = 157188 

BW Util Bottlenecks: 
RCDc_limit = 84 
RCDWRc_limit = 0 
WTRc_limit = 0 
RTWc_limit = 0 
CCDLc_limit = 183 
rwq = 0 
CCDLc_limit_alone = 183 
WTRc_limit_alone = 0 
RTWc_limit_alone = 0 

Commands details: 
total_CMD = 157647 
n_nop = 157387 
Read = 256 
Write = 0 
L2_Alloc = 0 
L2_WB = 0 
n_act = 4 
n_pre = 0 
n_ref = 0 
n_req = 256 
total_req = 256 

Dual Bus Interface Util: 
issued_total_row = 4 
issued_total_col = 256 
Row_Bus_Util =  0.000025 
CoL_Bus_Util = 0.001624 
Either_Row_CoL_Bus_Util = 0.001649 
Issued_on_Two_Bus_Simul_Util = 0.000000 
issued_two_Eff = 0.000000 
queue_avg = 0.002829 


dram_util_bins: 0 0 0 0 0 0 0 0 0 0
dram_eff_bins: 0 0 0 0 0 0 0 0 0 0
mrqq: max=8 avg=0.00282911
Memory Partition 14: 
Cache L2_bank_028:
MSHR contents

Cache L2_bank_029:
MSHR contents

In Dram Latency Queue (total = 0): 
DRAM[14]: 16 bks, busW=16 BL=2 CL=22, tRRD=7 tCCD=1, tRCD=22 tRAS=50 tRP=22 tRC=72
n_cmd=157647 n_nop=157406 n_act=5 n_pre=0 n_ref_event=0 n_req=236 n_rd=236 n_rd_L2_A=0 n_write=0 n_wr_bk=0 bw_util=0.001497
n_activity=1817 dram_eff=0.1299
bk0: 44a 157614i bk1: 76a 157511i bk2: 0a 157647i bk3: 0a 157647i bk4: 0a 157647i bk5: 0a 157647i bk6: 0a 157647i bk7: 0a 157647i bk8: 0a 157647i bk9: 0a 157647i bk10: 0a 157647i bk11: 0a 157647i bk12: 48a 157606i bk13: 64a 157576i bk14: 0a 157647i bk15: 4a 157610i 

------------------------------------------------------------------------

Row_Buffer_Locality = 0.978814
Row_Buffer_Locality_read = 0.978814
Row_Buffer_Locality_write = -nan
Bank_Level_Parallism = 1.144628
Bank_Level_Parallism_Col = 1.124740
Bank_Level_Parallism_Ready = 1.004237
write_to_read_ratio_blp_rw_average = 0.000000
GrpLevelPara = 1.124740 

BW Util details:
bwutil = 0.001497 
total_CMD = 157647 
util_bw = 236 
Wasted_Col = 248 
Wasted_Row = 0 
Idle = 157163 

BW Util Bottlenecks: 
RCDc_limit = 106 
RCDWRc_limit = 0 
WTRc_limit = 0 
RTWc_limit = 0 
CCDLc_limit = 186 
rwq = 0 
CCDLc_limit_alone = 186 
WTRc_limit_alone = 0 
RTWc_limit_alone = 0 

Commands details: 
total_CMD = 157647 
n_nop = 157406 
Read = 236 
Write = 0 
L2_Alloc = 0 
L2_WB = 0 
n_act = 5 
n_pre = 0 
n_ref = 0 
n_req = 236 
total_req = 236 

Dual Bus Interface Util: 
issued_total_row = 5 
issued_total_col = 236 
Row_Bus_Util =  0.000032 
CoL_Bus_Util = 0.001497 
Either_Row_CoL_Bus_Util = 0.001529 
Issued_on_Two_Bus_Simul_Util = 0.000000 
issued_two_Eff = 0.000000 
queue_avg = 0.002347 


dram_util_bins: 0 0 0 0 0 0 0 0 0 0
dram_eff_bins: 0 0 0 0 0 0 0 0 0 0
mrqq: max=6 avg=0.00234702
Memory Partition 15: 
Cache L2_bank_030:
MSHR contents

Cache L2_bank_031:
MSHR contents

In Dram Latency Queue (total = 0): 
DRAM[15]: 16 bks, busW=16 BL=2 CL=22, tRRD=7 tCCD=1, tRCD=22 tRAS=50 tRP=22 tRC=72
n_cmd=157647 n_nop=157381 n_act=6 n_pre=0 n_ref_event=0 n_req=260 n_rd=260 n_rd_L2_A=0 n_write=0 n_wr_bk=0 bw_util=0.001649
n_activity=1935 dram_eff=0.1344
bk0: 72a 157558i bk1: 52a 157607i bk2: 0a 157647i bk3: 0a 157647i bk4: 0a 157647i bk5: 0a 157647i bk6: 0a 157647i bk7: 0a 157647i bk8: 0a 157647i bk9: 0a 157647i bk10: 0a 157647i bk11: 0a 157647i bk12: 56a 157565i bk13: 68a 157582i bk14: 8a 157605i bk15: 4a 157622i 

------------------------------------------------------------------------

Row_Buffer_Locality = 0.976923
Row_Buffer_Locality_read = 0.976923
Row_Buffer_Locality_write = -nan
Bank_Level_Parallism = 1.096364
Bank_Level_Parallism_Col = 1.095413
Bank_Level_Parallism_Ready = 1.007692
write_to_read_ratio_blp_rw_average = 0.000000
GrpLevelPara = 1.095413 

BW Util details:
bwutil = 0.001649 
total_CMD = 157647 
util_bw = 260 
Wasted_Col = 290 
Wasted_Row = 0 
Idle = 157097 

BW Util Bottlenecks: 
RCDc_limit = 124 
RCDWRc_limit = 0 
WTRc_limit = 0 
RTWc_limit = 0 
CCDLc_limit = 192 
rwq = 0 
CCDLc_limit_alone = 192 
WTRc_limit_alone = 0 
RTWc_limit_alone = 0 

Commands details: 
total_CMD = 157647 
n_nop = 157381 
Read = 260 
Write = 0 
L2_Alloc = 0 
L2_WB = 0 
n_act = 6 
n_pre = 0 
n_ref = 0 
n_req = 260 
total_req = 260 

Dual Bus Interface Util: 
issued_total_row = 6 
issued_total_col = 260 
Row_Bus_Util =  0.000038 
CoL_Bus_Util = 0.001649 
Either_Row_CoL_Bus_Util = 0.001687 
Issued_on_Two_Bus_Simul_Util = 0.000000 
issued_two_Eff = 0.000000 
queue_avg = 0.004117 


dram_util_bins: 0 0 0 0 0 0 0 0 0 0
dram_eff_bins: 0 0 0 0 0 0 0 0 0 0
mrqq: max=7 avg=0.00411679

========= L2 cache stats =========
L2_total_cache_accesses = 0
L2_total_cache_misses = 0
L2_total_cache_pending_hits = 0
L2_total_cache_reservation_fails = 0
L2_total_cache_breakdown:
L2_total_cache_reservation_fail_breakdown:
L2_cache_data_port_util = 0.000
L2_cache_fill_port_util = 0.000

icnt_total_pkts_mem_to_simt=60160
icnt_total_pkts_simt_to_mem=60160
LD_mem_lat_dist  0 0 0 0 0 0 0 0 0 0 0 0 0 0 0 0 0 0 0 0 0 0 0 0 0 0 0
ST_mem_lat_dist  0 0 0 0 0 0 0 0 0 0 0 0 0 0 0 0 0 0 0 0 0 0 0 0 0 0 0
----------------------------Interconnect-DETAILS--------------------------------
Req_Network_injected_packets_num = 60160
Req_Network_cycles = 35603
Req_Network_injected_packets_per_cycle =       1.6897 
Req_Network_conflicts_per_cycle =       0.7179
Req_Network_conflicts_per_cycle_util =       2.9831
Req_Bank_Level_Parallism =       7.0215
Req_Network_in_buffer_full_per_cycle =       0.0000
Req_Network_in_buffer_avg_util =       0.9958
Req_Network_out_buffer_full_per_cycle =       0.0000
Req_Network_out_buffer_avg_util =       0.0528

Reply_Network_injected_packets_num = 60160
Reply_Network_cycles = 35603
Reply_Network_injected_packets_per_cycle =        1.6897
Reply_Network_conflicts_per_cycle =        0.0334
Reply_Network_conflicts_per_cycle_util =       0.1335
Reply_Bank_Level_Parallism =       6.7467
Reply_Network_in_buffer_full_per_cycle =       0.0000
Reply_Network_in_buffer_avg_util =       0.0036
Reply_Network_out_buffer_full_per_cycle =       0.0000
Reply_Network_out_buffer_avg_util =       0.0367
----------------------------END-of-Interconnect-DETAILS-------------------------


gpgpu_simulation_time = 0 days, 0 hrs, 0 min, 8 sec (8 sec)
gpgpu_simulation_rate = 1044791 (inst/sec)
gpgpu_simulation_rate = 4450 (cycle/sec)
gpgpu_silicon_slowdown = 254382x
GPGPU-Sim: *** simulation thread exiting ***
GPGPU-Sim: *** exit detected ***

