Accel-Sim [build accelsim-commit-_modified_0.0_25-11-18-19-33-50]

        *** GPGPU-Sim Simulator Version 4.2.0  [build gpgpu-sim_git-commit-_modified_0.0] ***


